CHEMBL376085
  Mrv2316 04152410472D          

 48 50  0  0  0  0            999 V2000
    7.1447    0.0000    0.0000 H   0  0  0  0  0  0  0  0  0  0  0  0
    6.4302   -0.4125    0.0000 O   0  0  0  0  0  0  0  0  0  0  0  0
    6.4302   -1.2375    0.0000 C   0  0  0  0  0  0  0  0  0  0  0  0
    7.1447   -1.6500    0.0000 C   0  0  0  0  0  0  0  0  0  0  0  0
    7.8592   -1.2375    0.0000 H   0  0  0  0  0  0  0  0  0  0  0  0
    7.1447   -2.4750    0.0000 C   0  0  0  0  0  0  0  0  0  0  0  0
    7.8592   -2.8875    0.0000 H   0  0  0  0  0  0  0  0  0  0  0  0
    6.4302   -2.8875    0.0000 C   0  0  0  0  0  0  0  0  0  0  0  0
    6.4302   -3.7125    0.0000 C   0  0  0  0  0  0  0  0  0  0  0  0
    5.6066   -3.7605    0.0000 H   0  0  0  0  0  0  0  0  0  0  0  0
    5.9769   -4.4018    0.0000 H   0  0  0  0  0  0  0  0  0  0  0  0
    7.1447   -4.1250    0.0000 C   0  0  0  0  0  0  0  0  0  0  0  0
    7.9683   -4.0770    0.0000 H   0  0  0  0  0  0  0  0  0  0  0  0
    7.5981   -3.4357    0.0000 H   0  0  0  0  0  0  0  0  0  0  0  0
    7.1447   -4.9500    0.0000 N   0  0  0  0  0  0  0  0  0  0  0  0
    6.4302   -5.3625    0.0000 H   0  0  0  0  0  0  0  0  0  0  0  0
    7.8592   -5.3625    0.0000 C   0  0  0  0  0  0  0  0  0  0  0  0
    8.5737   -4.9500    0.0000 N   0  0  0  0  0  0  0  0  0  0  0  0
    9.2881   -5.3625    0.0000 C   0  0  0  0  0  0  0  0  0  0  0  0
   10.0026   -4.9500    0.0000 H   0  0  0  0  0  0  0  0  0  0  0  0
    9.2881   -6.1875    0.0000 C   0  0  0  0  0  0  0  0  0  0  0  0
   10.0026   -6.6000    0.0000 C   0  0  0  0  0  0  0  0  0  0  0  0
   10.0026   -7.4250    0.0000 O   0  0  0  0  0  0  0  0  0  0  0  0
   10.7171   -6.1875    0.0000 N   0  0  0  0  0  0  0  0  0  0  0  0
   11.4315   -6.6000    0.0000 H   0  0  0  0  0  0  0  0  0  0  0  0
   10.7171   -5.3625    0.0000 H   0  0  0  0  0  0  0  0  0  0  0  0
    8.5737   -6.6000    0.0000 C   0  0  0  0  0  0  0  0  0  0  0  0
    8.5737   -7.4250    0.0000 N   0  0  0  0  0  0  0  0  0  0  0  0
    9.2881   -7.8375    0.0000 H   0  0  0  0  0  0  0  0  0  0  0  0
    7.8592   -7.8375    0.0000 C   0  0  0  0  0  0  0  0  0  0  0  0
    7.8592   -8.6625    0.0000 C   0  0  0  0  0  0  0  0  0  0  0  0
    8.5737   -9.0750    0.0000 H   0  0  0  0  0  0  0  0  0  0  0  0
    7.1447   -9.0750    0.0000 C   0  0  0  0  0  0  0  0  0  0  0  0
    7.1447   -9.9000    0.0000 H   0  0  0  0  0  0  0  0  0  0  0  0
    6.4302   -8.6625    0.0000 C   0  0  0  0  0  0  0  0  0  0  0  0
    5.7158   -9.0750    0.0000 H   0  0  0  0  0  0  0  0  0  0  0  0
    6.4302   -7.8375    0.0000 C   0  0  0  0  0  0  0  0  0  0  0  0
    5.7158   -7.4250    0.0000 C   0  0  0  0  0  0  0  0  0  0  0  0
    6.1283   -6.7105    0.0000 H   0  0  0  0  0  0  0  0  0  0  0  0
    5.0013   -7.0125    0.0000 H   0  0  0  0  0  0  0  0  0  0  0  0
    5.3033   -8.1395    0.0000 H   0  0  0  0  0  0  0  0  0  0  0  0
    7.1447   -7.4250    0.0000 C   0  0  0  0  0  0  0  0  0  0  0  0
    7.1447   -6.6000    0.0000 H   0  0  0  0  0  0  0  0  0  0  0  0
    7.8592   -6.1875    0.0000 N   0  0  0  0  0  0  0  0  0  0  0  0
    5.7158   -2.4750    0.0000 C   0  0  0  0  0  0  0  0  0  0  0  0
    5.0013   -2.8875    0.0000 H   0  0  0  0  0  0  0  0  0  0  0  0
    5.7158   -1.6500    0.0000 C   0  0  0  0  0  0  0  0  0  0  0  0
    5.0013   -1.2375    0.0000 H   0  0  0  0  0  0  0  0  0  0  0  0
  1  2  1  0  0  0  0
  2  3  1  0  0  0  0
  3  4  4  0  0  0  0
  4  5  1  0  0  0  0
  4  6  4  0  0  0  0
  6  7  1  0  0  0  0
  6  8  4  0  0  0  0
  8  9  1  0  0  0  0
  9 10  1  0  0  0  0
  9 11  1  0  0  0  0
  9 12  1  0  0  0  0
 12 13  1  0  0  0  0
 12 14  1  0  0  0  0
 12 15  1  0  0  0  0
 15 16  1  0  0  0  0
 15 17  1  0  0  0  0
 17 18  4  0  0  0  0
 18 19  4  0  0  0  0
 19 20  1  0  0  0  0
 19 21  4  0  0  0  0
 21 22  1  0  0  0  0
 22 23  2  0  0  0  0
 22 24  1  0  0  0  0
 24 25  1  0  0  0  0
 24 26  1  0  0  0  0
 21 27  4  0  0  0  0
 27 28  1  0  0  0  0
 28 29  1  0  0  0  0
 28 30  1  0  0  0  0
 30 31  4  0  0  0  0
 31 32  1  0  0  0  0
 31 33  4  0  0  0  0
 33 34  1  0  0  0  0
 33 35  4  0  0  0  0
 35 36  1  0  0  0  0
 35 37  4  0  0  0  0
 37 38  1  0  0  0  0
 38 39  1  0  0  0  0
 38 40  1  0  0  0  0
 38 41  1  0  0  0  0
 37 42  4  0  0  0  0
 30 42  4  0  0  0  0
 42 43  1  0  0  0  0
 27 44  4  0  0  0  0
 17 44  4  0  0  0  0
  8 45  4  0  0  0  0
 45 46  1  0  0  0  0
 45 47  4  0  0  0  0
  3 47  4  0  0  0  0
 47 48  1  0  0  0  0
M  END
> <pActivity>
6.72124639904717

$$$$
CHEMBL227748
  Mrv2316 04152410472D          

 51 53  0  0  0  0            999 V2000
    7.1447    0.0000    0.0000 H   0  0  0  0  0  0  0  0  0  0  0  0
    6.4302   -0.4125    0.0000 O   0  0  0  0  0  0  0  0  0  0  0  0
    6.4302   -1.2375    0.0000 C   0  0  0  0  0  0  0  0  0  0  0  0
    7.1447   -1.6500    0.0000 C   0  0  0  0  0  0  0  0  0  0  0  0
    7.8592   -1.2375    0.0000 H   0  0  0  0  0  0  0  0  0  0  0  0
    7.1447   -2.4750    0.0000 C   0  0  0  0  0  0  0  0  0  0  0  0
    7.8592   -2.8875    0.0000 H   0  0  0  0  0  0  0  0  0  0  0  0
    6.4302   -2.8875    0.0000 C   0  0  0  0  0  0  0  0  0  0  0  0
    6.4302   -3.7125    0.0000 C   0  0  0  0  0  0  0  0  0  0  0  0
    5.6066   -3.7605    0.0000 H   0  0  0  0  0  0  0  0  0  0  0  0
    5.9769   -4.4018    0.0000 H   0  0  0  0  0  0  0  0  0  0  0  0
    7.1447   -4.1250    0.0000 C   0  0  0  0  0  0  0  0  0  0  0  0
    7.9683   -4.0770    0.0000 H   0  0  0  0  0  0  0  0  0  0  0  0
    7.5981   -3.4357    0.0000 H   0  0  0  0  0  0  0  0  0  0  0  0
    7.1447   -4.9500    0.0000 N   0  0  0  0  0  0  0  0  0  0  0  0
    6.4302   -5.3625    0.0000 H   0  0  0  0  0  0  0  0  0  0  0  0
    7.8592   -5.3625    0.0000 C   0  0  0  0  0  0  0  0  0  0  0  0
    8.5737   -4.9500    0.0000 N   0  0  0  0  0  0  0  0  0  0  0  0
    9.2881   -5.3625    0.0000 C   0  0  0  0  0  0  0  0  0  0  0  0
   10.0026   -4.9500    0.0000 H   0  0  0  0  0  0  0  0  0  0  0  0
    9.2881   -6.1875    0.0000 C   0  0  0  0  0  0  0  0  0  0  0  0
   10.0026   -6.6000    0.0000 C   0  0  0  0  0  0  0  0  0  0  0  0
   10.0026   -7.4250    0.0000 O   0  0  0  0  0  0  0  0  0  0  0  0
   10.7171   -6.1875    0.0000 N   0  0  0  0  0  0  0  0  0  0  0  0
   10.7171   -5.3625    0.0000 H   0  0  0  0  0  0  0  0  0  0  0  0
   11.4315   -6.6000    0.0000 C   0  0  0  0  0  0  0  0  0  0  0  0
   11.0190   -7.3145    0.0000 H   0  0  0  0  0  0  0  0  0  0  0  0
   12.1460   -7.0125    0.0000 H   0  0  0  0  0  0  0  0  0  0  0  0
   11.8440   -5.8855    0.0000 H   0  0  0  0  0  0  0  0  0  0  0  0
    8.5737   -6.6000    0.0000 C   0  0  0  0  0  0  0  0  0  0  0  0
    8.5737   -7.4250    0.0000 N   0  0  0  0  0  0  0  0  0  0  0  0
    9.2881   -7.8375    0.0000 H   0  0  0  0  0  0  0  0  0  0  0  0
    7.8592   -7.8375    0.0000 C   0  0  0  0  0  0  0  0  0  0  0  0
    7.8592   -8.6625    0.0000 C   0  0  0  0  0  0  0  0  0  0  0  0
    8.5737   -9.0750    0.0000 H   0  0  0  0  0  0  0  0  0  0  0  0
    7.1447   -9.0750    0.0000 C   0  0  0  0  0  0  0  0  0  0  0  0
    7.1447   -9.9000    0.0000 H   0  0  0  0  0  0  0  0  0  0  0  0
    6.4302   -8.6625    0.0000 C   0  0  0  0  0  0  0  0  0  0  0  0
    5.7158   -9.0750    0.0000 H   0  0  0  0  0  0  0  0  0  0  0  0
    6.4302   -7.8375    0.0000 C   0  0  0  0  0  0  0  0  0  0  0  0
    5.7158   -7.4250    0.0000 C   0  0  0  0  0  0  0  0  0  0  0  0
    6.1283   -6.7105    0.0000 H   0  0  0  0  0  0  0  0  0  0  0  0
    5.0013   -7.0125    0.0000 H   0  0  0  0  0  0  0  0  0  0  0  0
    5.3033   -8.1395    0.0000 H   0  0  0  0  0  0  0  0  0  0  0  0
    7.1447   -7.4250    0.0000 C   0  0  0  0  0  0  0  0  0  0  0  0
    7.1447   -6.6000    0.0000 H   0  0  0  0  0  0  0  0  0  0  0  0
    7.8592   -6.1875    0.0000 N   0  0  0  0  0  0  0  0  0  0  0  0
    5.7158   -2.4750    0.0000 C   0  0  0  0  0  0  0  0  0  0  0  0
    5.0013   -2.8875    0.0000 H   0  0  0  0  0  0  0  0  0  0  0  0
    5.7158   -1.6500    0.0000 C   0  0  0  0  0  0  0  0  0  0  0  0
    5.0013   -1.2375    0.0000 H   0  0  0  0  0  0  0  0  0  0  0  0
  1  2  1  0  0  0  0
  2  3  1  0  0  0  0
  3  4  4  0  0  0  0
  4  5  1  0  0  0  0
  4  6  4  0  0  0  0
  6  7  1  0  0  0  0
  6  8  4  0  0  0  0
  8  9  1  0  0  0  0
  9 10  1  0  0  0  0
  9 11  1  0  0  0  0
  9 12  1  0  0  0  0
 12 13  1  0  0  0  0
 12 14  1  0  0  0  0
 12 15  1  0  0  0  0
 15 16  1  0  0  0  0
 15 17  1  0  0  0  0
 17 18  4  0  0  0  0
 18 19  4  0  0  0  0
 19 20  1  0  0  0  0
 19 21  4  0  0  0  0
 21 22  1  0  0  0  0
 22 23  2  0  0  0  0
 22 24  1  0  0  0  0
 24 25  1  0  0  0  0
 24 26  1  0  0  0  0
 26 27  1  0  0  0  0
 26 28  1  0  0  0  0
 26 29  1  0  0  0  0
 21 30  4  0  0  0  0
 30 31  1  0  0  0  0
 31 32  1  0  0  0  0
 31 33  1  0  0  0  0
 33 34  4  0  0  0  0
 34 35  1  0  0  0  0
 34 36  4  0  0  0  0
 36 37  1  0  0  0  0
 36 38  4  0  0  0  0
 38 39  1  0  0  0  0
 38 40  4  0  0  0  0
 40 41  1  0  0  0  0
 41 42  1  0  0  0  0
 41 43  1  0  0  0  0
 41 44  1  0  0  0  0
 40 45  4  0  0  0  0
 33 45  4  0  0  0  0
 45 46  1  0  0  0  0
 30 47  4  0  0  0  0
 17 47  4  0  0  0  0
  8 48  4  0  0  0  0
 48 49  1  0  0  0  0
 48 50  4  0  0  0  0
  3 50  4  0  0  0  0
 50 51  1  0  0  0  0
M  END
> <pActivity>
6.769551078621726

$$$$
CHEMBL3740699
  Mrv2316 04152410472D          

 74 75  0  0  0  0            999 V2000
   -2.1434   -9.4875    0.0000 H   0  0  0  0  0  0  0  0  0  0  0  0
   -1.4289   -9.0750    0.0000 O   0  0  0  0  0  0  0  0  0  0  0  0
   -1.4289   -8.2500    0.0000 P   0  0  0  0  0  0  0  0  0  0  0  0
   -0.6039   -8.2500    0.0000 O   0  0  0  0  0  0  0  0  0  0  0  0
   -2.2539   -8.2500    0.0000 O   0  0  0  0  0  0  0  0  0  0  0  0
   -2.6664   -7.5355    0.0000 H   0  0  0  0  0  0  0  0  0  0  0  0
   -1.4289   -7.4250    0.0000 O   0  0  0  0  0  0  0  0  0  0  0  0
   -0.7145   -7.0125    0.0000 C   0  0  0  0  0  0  0  0  0  0  0  0
   -0.7145   -6.1875    0.0000 C   0  0  0  0  0  0  0  0  0  0  0  0
   -1.4289   -5.7750    0.0000 H   0  0  0  0  0  0  0  0  0  0  0  0
    0.0000   -5.7750    0.0000 C   0  0  0  0  0  0  0  0  0  0  0  0
    0.0000   -4.9500    0.0000 H   0  0  0  0  0  0  0  0  0  0  0  0
    0.7145   -6.1875    0.0000 C   0  0  0  0  0  0  0  0  0  0  0  0
    1.4289   -5.7750    0.0000 C   0  0  0  0  0  0  0  0  0  0  0  0
    2.1434   -6.1875    0.0000 C   0  0  0  0  0  0  0  0  0  0  0  0
    2.1434   -7.0125    0.0000 H   0  0  0  0  0  0  0  0  0  0  0  0
    2.8579   -5.7750    0.0000 C   0  0  0  0  0  0  0  0  0  0  0  0
    3.5724   -6.1875    0.0000 O   0  0  0  0  0  0  0  0  0  0  0  0
    2.8579   -4.9500    0.0000 N   0  0  0  0  0  0  0  0  0  0  0  0
    2.1434   -4.5375    0.0000 H   0  0  0  0  0  0  0  0  0  0  0  0
    3.5724   -4.5375    0.0000 C   0  0  0  0  0  0  0  0  0  0  0  0
    2.8579   -4.1250    0.0000 H   0  0  0  0  0  0  0  0  0  0  0  0
    3.5724   -3.7125    0.0000 C   0  0  0  0  0  0  0  0  0  0  0  0
    2.8579   -3.3000    0.0000 O   0  0  0  0  0  0  0  0  0  0  0  0
    4.2868   -3.3000    0.0000 N   0  0  0  0  0  0  0  0  0  0  0  0
    5.0013   -3.7125    0.0000 C   0  0  0  0  0  0  0  0  0  0  0  0
    5.5035   -4.3670    0.0000 H   0  0  0  0  0  0  0  0  0  0  0  0
    5.7982   -3.4990    0.0000 H   0  0  0  0  0  0  0  0  0  0  0  0
    5.1090   -2.8946    0.0000 H   0  0  0  0  0  0  0  0  0  0  0  0
    4.2868   -2.4750    0.0000 C   0  0  0  0  0  0  0  0  0  0  0  0
    4.2868   -1.6500    0.0000 H   0  0  0  0  0  0  0  0  0  0  0  0
    5.0013   -2.0625    0.0000 C   0  0  0  0  0  0  0  0  0  0  0  0
    5.7158   -2.4750    0.0000 O   0  0  0  0  0  0  0  0  0  0  0  0
    5.0013   -1.2375    0.0000 N   0  0  0  0  0  0  0  0  0  0  0  0
    5.7158   -0.8250    0.0000 C   0  0  0  0  0  0  0  0  0  0  0  0
    5.7158    0.0000    0.0000 C   0  0  0  0  0  0  0  0  0  0  0  0
    5.0013    0.4125    0.0000 H   0  0  0  0  0  0  0  0  0  0  0  0
    6.4302    0.4125    0.0000 C   0  0  0  0  0  0  0  0  0  0  0  0
    6.4302    1.2375    0.0000 H   0  0  0  0  0  0  0  0  0  0  0  0
    7.1447    0.0000    0.0000 C   0  0  0  0  0  0  0  0  0  0  0  0
    7.8592    0.4125    0.0000 H   0  0  0  0  0  0  0  0  0  0  0  0
    7.1447   -0.8250    0.0000 C   0  0  0  0  0  0  0  0  0  0  0  0
    7.8592   -1.2375    0.0000 H   0  0  0  0  0  0  0  0  0  0  0  0
    6.4302   -1.2375    0.0000 C   0  0  0  0  0  0  0  0  0  0  0  0
    6.4302   -2.0625    0.0000 H   0  0  0  0  0  0  0  0  0  0  0  0
    4.2868   -0.8250    0.0000 C   0  0  0  0  0  0  0  0  0  0  0  0
    4.8702   -0.2416    0.0000 H   0  0  0  0  0  0  0  0  0  0  0  0
    3.8743   -0.1105    0.0000 H   0  0  0  0  0  0  0  0  0  0  0  0
    3.4899   -1.0385    0.0000 H   0  0  0  0  0  0  0  0  0  0  0  0
    3.5724   -2.0625    0.0000 C   0  0  0  0  0  0  0  0  0  0  0  0
    3.3588   -1.2656    0.0000 H   0  0  0  0  0  0  0  0  0  0  0  0
    2.7474   -2.0625    0.0000 H   0  0  0  0  0  0  0  0  0  0  0  0
    3.3588   -2.8594    0.0000 H   0  0  0  0  0  0  0  0  0  0  0  0
    4.2868   -4.9500    0.0000 C   0  0  0  0  0  0  0  0  0  0  0  0
    3.8743   -5.6645    0.0000 C   0  0  0  0  0  0  0  0  0  0  0  0
    3.3440   -5.0325    0.0000 H   0  0  0  0  0  0  0  0  0  0  0  0
    3.0619   -5.5212    0.0000 H   0  0  0  0  0  0  0  0  0  0  0  0
    4.5888   -6.0770    0.0000 H   0  0  0  0  0  0  0  0  0  0  0  0
    4.6993   -4.2355    0.0000 C   0  0  0  0  0  0  0  0  0  0  0  0
    4.1690   -3.6035    0.0000 H   0  0  0  0  0  0  0  0  0  0  0  0
    3.8869   -4.0923    0.0000 H   0  0  0  0  0  0  0  0  0  0  0  0
    5.0526   -4.9810    0.0000 H   0  0  0  0  0  0  0  0  0  0  0  0
    5.0013   -5.3625    0.0000 C   0  0  0  0  0  0  0  0  0  0  0  0
    5.2913   -6.1348    0.0000 H   0  0  0  0  0  0  0  0  0  0  0  0
    5.7821   -5.6288    0.0000 H   0  0  0  0  0  0  0  0  0  0  0  0
    5.7028   -4.9284    0.0000 H   0  0  0  0  0  0  0  0  0  0  0  0
    1.4289   -4.9500    0.0000 C   0  0  0  0  0  0  0  0  0  0  0  0
    1.4289   -4.1250    0.0000 H   0  0  0  0  0  0  0  0  0  0  0  0
    0.7145   -4.5375    0.0000 H   0  0  0  0  0  0  0  0  0  0  0  0
    0.7145   -5.3625    0.0000 H   0  0  0  0  0  0  0  0  0  0  0  0
    0.7145   -7.0125    0.0000 C   0  0  0  0  0  0  0  0  0  0  0  0
    1.4289   -7.4250    0.0000 H   0  0  0  0  0  0  0  0  0  0  0  0
    0.0000   -7.4250    0.0000 C   0  0  0  0  0  0  0  0  0  0  0  0
    0.0000   -8.2500    0.0000 H   0  0  0  0  0  0  0  0  0  0  0  0
  1  2  1  0  0  0  0
  2  3  1  0  0  0  0
  3  4  2  0  0  0  0
  3  5  1  0  0  0  0
  5  6  1  0  0  0  0
  3  7  1  0  0  0  0
  7  8  1  0  0  0  0
  8  9  4  0  0  0  0
  9 10  1  0  0  0  0
  9 11  4  0  0  0  0
 11 12  1  0  0  0  0
 11 13  4  0  0  0  0
 13 14  1  0  0  0  0
 14 15  2  0  0  0  0
 15 16  1  4  0  0  0
 15 17  1  0  0  0  0
 17 18  2  0  0  0  0
 17 19  1  0  0  0  0
 19 20  1  0  0  0  0
 19 21  1  0  0  0  0
 21 22  1  0  0  0  0
 21 23  1  0  0  0  0
 23 24  2  0  0  0  0
 23 25  1  0  0  0  0
 25 26  1  0  0  0  0
 26 27  1  0  0  0  0
 26 28  1  0  0  0  0
 26 29  1  0  0  0  0
 25 30  1  0  0  0  0
 30 31  1  0  0  0  0
 30 32  1  0  0  0  0
 32 33  2  0  0  0  0
 32 34  1  0  0  0  0
 34 35  1  0  0  0  0
 35 36  4  0  0  0  0
 36 37  1  0  0  0  0
 36 38  4  0  0  0  0
 38 39  1  0  0  0  0
 38 40  4  0  0  0  0
 40 41  1  0  0  0  0
 40 42  4  0  0  0  0
 42 43  1  0  0  0  0
 42 44  4  0  0  0  0
 35 44  4  0  0  0  0
 44 45  1  0  0  0  0
 34 46  1  0  0  0  0
 46 47  1  0  0  0  0
 46 48  1  0  0  0  0
 46 49  1  0  0  0  0
 30 50  1  0  0  0  0
 50 51  1  0  0  0  0
 50 52  1  0  0  0  0
 50 53  1  0  0  0  0
 21 54  1  0  0  0  0
 54 55  1  0  0  0  0
 55 56  1  0  0  0  0
 55 57  1  0  0  0  0
 55 58  1  0  0  0  0
 54 59  1  0  0  0  0
 59 60  1  0  0  0  0
 59 61  1  0  0  0  0
 59 62  1  0  0  0  0
 54 63  1  0  0  0  0
 63 64  1  0  0  0  0
 63 65  1  0  0  0  0
 63 66  1  0  0  0  0
 14 67  1  0  0  0  0
 67 68  1  0  0  0  0
 67 69  1  0  0  0  0
 67 70  1  0  0  0  0
 13 71  4  0  0  0  0
 71 72  1  0  0  0  0
 71 73  4  0  0  0  0
  8 73  4  0  0  0  0
 73 74  1  0  0  0  0
M  END
> <pActivity>
6.318758762624412

$$$$
CHEMBL5271361
  Mrv2316 04152410472D          

 48 49  0  0  0  0            999 V2000
   -0.3769   -0.1722    0.0000 H   0  0  0  0  0  0  0  0  0  0  0  0
   -0.5328   -0.9823    0.0000 O   0  0  0  0  0  0  0  0  0  0  0  0
    0.0908   -1.5224    0.0000 C   0  0  0  0  0  0  0  0  0  0  0  0
   -0.0651   -2.3325    0.0000 C   0  0  0  0  0  0  0  0  0  0  0  0
   -0.8446   -2.6026    0.0000 H   0  0  0  0  0  0  0  0  0  0  0  0
    0.5586   -2.8726    0.0000 C   0  0  0  0  0  0  0  0  0  0  0  0
    0.4027   -3.6828    0.0000 O   0  0  0  0  0  0  0  0  0  0  0  0
   -0.3769   -3.9528    0.0000 H   0  0  0  0  0  0  0  0  0  0  0  0
    1.3381   -2.6026    0.0000 C   0  0  0  0  0  0  0  0  0  0  0  0
    1.4940   -1.7925    0.0000 C   0  0  0  0  0  0  0  0  0  0  0  0
    0.8704   -1.2524    0.0000 C   0  0  0  0  0  0  0  0  0  0  0  0
    1.0263   -0.4422    0.0000 Cl  0  0  0  0  0  0  0  0  0  0  0  0
    2.2736   -1.5224    0.0000 C   0  0  0  0  0  0  0  0  0  0  0  0
    3.0531   -1.2524    0.0000 H   0  0  0  0  0  0  0  0  0  0  0  0
    2.1177   -2.3325    0.0000 H   0  0  0  0  0  0  0  0  0  0  0  0
    2.4295   -0.7123    0.0000 C   0  0  0  0  0  0  0  0  0  0  0  0
    1.8058   -0.1722    0.0000 O   0  0  0  0  0  0  0  0  0  0  0  0
    3.2090   -0.4422    0.0000 O   0  0  0  0  0  0  0  0  0  0  0  0
    3.8327   -0.9823    0.0000 C   0  0  0  0  0  0  0  0  0  0  0  0
    3.9886   -0.1722    0.0000 H   0  0  0  0  0  0  0  0  0  0  0  0
    4.6122   -0.7123    0.0000 C   0  0  0  0  0  0  0  0  0  0  0  0
    5.1020   -1.3762    0.0000 H   0  0  0  0  0  0  0  0  0  0  0  0
    5.4230   -0.5598    0.0000 H   0  0  0  0  0  0  0  0  0  0  0  0
    4.8275    0.0842    0.0000 H   0  0  0  0  0  0  0  0  0  0  0  0
    3.6768   -1.7925    0.0000 C   0  0  0  0  0  0  0  0  0  0  0  0
    4.3169   -1.2721    0.0000 C   0  0  0  0  0  0  0  0  0  0  0  0
    4.8497   -1.9020    0.0000 H   0  0  0  0  0  0  0  0  0  0  0  0
    5.0408   -1.6678    0.0000 H   0  0  0  0  0  0  0  0  0  0  0  0
    4.0944   -0.4777    0.0000 H   0  0  0  0  0  0  0  0  0  0  0  0
    4.5017   -1.8053    0.0000 C   0  0  0  0  0  0  0  0  0  0  0  0
    4.5441   -2.6292    0.0000 H   0  0  0  0  0  0  0  0  0  0  0  0
    4.8735   -2.5418    0.0000 H   0  0  0  0  0  0  0  0  0  0  0  0
    5.1394   -2.3286    0.0000 H   0  0  0  0  0  0  0  0  0  0  0  0
    4.3004   -2.3325    0.0000 C   0  0  0  0  0  0  0  0  0  0  0  0
    3.4755   -2.3197    0.0000 H   0  0  0  0  0  0  0  0  0  0  0  0
    3.6602   -2.8529    0.0000 H   0  0  0  0  0  0  0  0  0  0  0  0
    4.1445   -3.1427    0.0000 C   0  0  0  0  0  0  0  0  0  0  0  0
    4.2456   -3.9615    0.0000 H   0  0  0  0  0  0  0  0  0  0  0  0
    4.7908   -3.6555    0.0000 H   0  0  0  0  0  0  0  0  0  0  0  0
    3.3649   -3.4127    0.0000 C   0  0  0  0  0  0  0  0  0  0  0  0
    3.2090   -4.2229    0.0000 H   0  0  0  0  0  0  0  0  0  0  0  0
    2.7413   -2.8726    0.0000 C   0  0  0  0  0  0  0  0  0  0  0  0
    2.8972   -2.0625    0.0000 C   0  0  0  0  0  0  0  0  0  0  0  0
    3.2790   -2.7938    0.0000 H   0  0  0  0  0  0  0  0  0  0  0  0
    3.4373   -1.4389    0.0000 H   0  0  0  0  0  0  0  0  0  0  0  0
    2.3571   -2.6861    0.0000 H   0  0  0  0  0  0  0  0  0  0  0  0
    1.9618   -3.1427    0.0000 C   0  0  0  0  0  0  0  0  0  0  0  0
    1.8058   -3.9528    0.0000 O   0  0  0  0  0  0  0  0  0  0  0  0
  1  2  1  0  0  0  0
  2  3  1  0  0  0  0
  3  4  4  0  0  0  0
  4  5  1  0  0  0  0
  4  6  4  0  0  0  0
  6  7  1  0  0  0  0
  7  8  1  0  0  0  0
  6  9  4  0  0  0  0
  9 10  4  0  0  0  0
 10 11  4  0  0  0  0
  3 11  4  0  0  0  0
 11 12  1  0  0  0  0
 10 13  1  0  0  0  0
 13 14  1  0  0  0  0
 13 15  1  0  0  0  0
 13 16  1  0  0  0  0
 16 17  2  0  0  0  0
 16 18  1  0  0  0  0
 18 19  1  0  0  0  0
 19 20  1  0  0  0  0
 19 21  1  0  0  0  0
 21 22  1  0  0  0  0
 21 23  1  0  0  0  0
 21 24  1  0  0  0  0
 19 25  1  0  0  0  0
 25 26  1  0  0  0  0
 26 27  1  0  0  0  0
 26 28  1  0  0  0  0
 26 29  1  0  0  0  0
 25 30  1  0  0  0  0
 30 31  1  0  0  0  0
 30 32  1  0  0  0  0
 30 33  1  0  0  0  0
 25 34  1  0  0  0  0
 34 35  1  0  0  0  0
 34 36  1  0  0  0  0
 34 37  1  0  0  0  0
 37 38  1  0  0  0  0
 37 39  1  0  0  0  0
 37 40  1  0  0  0  0
 40 41  1  4  0  0  0
 40 42  2  0  0  0  0
 42 43  1  0  0  0  0
 43 44  1  0  0  0  0
 43 45  1  0  0  0  0
 43 46  1  0  0  0  0
 42 47  1  0  0  0  0
  9 47  1  0  0  0  0
 47 48  2  0  0  0  0
M  END
> <pActivity>
7.102372908709557

$$$$
CHEMBL5267203
  Mrv2316 04152410472D          

 46 47  0  0  0  0            999 V2000
   -0.3769   -0.1722    0.0000 H   0  0  0  0  0  0  0  0  0  0  0  0
   -0.5328   -0.9823    0.0000 O   0  0  0  0  0  0  0  0  0  0  0  0
    0.0908   -1.5224    0.0000 C   0  0  0  0  0  0  0  0  0  0  0  0
   -0.0651   -2.3325    0.0000 C   0  0  0  0  0  0  0  0  0  0  0  0
   -0.8446   -2.6026    0.0000 H   0  0  0  0  0  0  0  0  0  0  0  0
    0.5586   -2.8726    0.0000 C   0  0  0  0  0  0  0  0  0  0  0  0
    0.4027   -3.6828    0.0000 O   0  0  0  0  0  0  0  0  0  0  0  0
   -0.3769   -3.9528    0.0000 H   0  0  0  0  0  0  0  0  0  0  0  0
    1.3381   -2.6026    0.0000 C   0  0  0  0  0  0  0  0  0  0  0  0
    1.4940   -1.7925    0.0000 C   0  0  0  0  0  0  0  0  0  0  0  0
    0.8704   -1.2524    0.0000 C   0  0  0  0  0  0  0  0  0  0  0  0
    1.0263   -0.4422    0.0000 Cl  0  0  0  0  0  0  0  0  0  0  0  0
    2.2736   -1.5224    0.0000 C   0  0  0  0  0  0  0  0  0  0  0  0
    3.0531   -1.2524    0.0000 H   0  0  0  0  0  0  0  0  0  0  0  0
    1.6499   -0.9823    0.0000 H   0  0  0  0  0  0  0  0  0  0  0  0
    2.4295   -0.7123    0.0000 C   0  0  0  0  0  0  0  0  0  0  0  0
    1.8058   -0.1722    0.0000 O   0  0  0  0  0  0  0  0  0  0  0  0
    3.2090   -0.4422    0.0000 O   0  0  0  0  0  0  0  0  0  0  0  0
    3.8327   -0.9823    0.0000 C   0  0  0  0  0  0  0  0  0  0  0  0
    4.4563   -1.5224    0.0000 H   0  0  0  0  0  0  0  0  0  0  0  0
    4.6122   -0.7123    0.0000 C   0  0  0  0  0  0  0  0  0  0  0  0
    5.3544   -1.0726    0.0000 H   0  0  0  0  0  0  0  0  0  0  0  0
    5.1523   -0.0886    0.0000 H   0  0  0  0  0  0  0  0  0  0  0  0
    4.1496   -0.0292    0.0000 H   0  0  0  0  0  0  0  0  0  0  0  0
    3.6768   -1.7925    0.0000 C   0  0  0  0  0  0  0  0  0  0  0  0
    3.5209   -2.6026    0.0000 H   0  0  0  0  0  0  0  0  0  0  0  0
    2.8972   -2.0625    0.0000 C   0  0  0  0  0  0  0  0  0  0  0  0
    3.1673   -2.8421    0.0000 H   0  0  0  0  0  0  0  0  0  0  0  0
    3.4373   -1.4389    0.0000 H   0  0  0  0  0  0  0  0  0  0  0  0
    2.1078   -1.8228    0.0000 H   0  0  0  0  0  0  0  0  0  0  0  0
    4.3004   -2.3325    0.0000 C   0  0  0  0  0  0  0  0  0  0  0  0
    4.9241   -2.8726    0.0000 H   0  0  0  0  0  0  0  0  0  0  0  0
    5.0800   -2.0625    0.0000 O   0  0  0  0  0  0  0  0  0  0  0  0
    5.8595   -1.7925    0.0000 H   0  0  0  0  0  0  0  0  0  0  0  0
    4.1445   -3.1427    0.0000 C   0  0  0  0  0  0  0  0  0  0  0  0
    4.1316   -3.9676    0.0000 H   0  0  0  0  0  0  0  0  0  0  0  0
    4.6649   -3.7829    0.0000 H   0  0  0  0  0  0  0  0  0  0  0  0
    3.3649   -3.4127    0.0000 C   0  0  0  0  0  0  0  0  0  0  0  0
    2.8526   -4.0593    0.0000 H   0  0  0  0  0  0  0  0  0  0  0  0
    2.7413   -2.8726    0.0000 C   0  0  0  0  0  0  0  0  0  0  0  0
    2.3913   -2.1256    0.0000 C   0  0  0  0  0  0  0  0  0  0  0  0
    1.5890   -2.3182    0.0000 H   0  0  0  0  0  0  0  0  0  0  0  0
    1.8325   -2.7326    0.0000 H   0  0  0  0  0  0  0  0  0  0  0  0
    2.2656   -2.9410    0.0000 H   0  0  0  0  0  0  0  0  0  0  0  0
    1.9618   -3.1427    0.0000 C   0  0  0  0  0  0  0  0  0  0  0  0
    1.8058   -3.9528    0.0000 O   0  0  0  0  0  0  0  0  0  0  0  0
  1  2  1  0  0  0  0
  2  3  1  0  0  0  0
  3  4  4  0  0  0  0
  4  5  1  0  0  0  0
  4  6  4  0  0  0  0
  6  7  1  0  0  0  0
  7  8  1  0  0  0  0
  6  9  4  0  0  0  0
  9 10  4  0  0  0  0
 10 11  4  0  0  0  0
  3 11  4  0  0  0  0
 11 12  1  0  0  0  0
 10 13  1  0  0  0  0
 13 14  1  0  0  0  0
 13 15  1  0  0  0  0
 13 16  1  0  0  0  0
 16 17  2  0  0  0  0
 16 18  1  0  0  0  0
 18 19  1  0  0  0  0
 19 20  1  0  0  0  0
 19 21  1  0  0  0  0
 21 22  1  0  0  0  0
 21 23  1  0  0  0  0
 21 24  1  0  0  0  0
 19 25  1  0  0  0  0
 25 26  1  0  0  0  0
 25 27  1  0  0  0  0
 27 28  1  0  0  0  0
 27 29  1  0  0  0  0
 27 30  1  0  0  0  0
 25 31  1  0  0  0  0
 31 32  1  0  0  0  0
 31 33  1  0  0  0  0
 33 34  1  0  0  0  0
 31 35  1  0  0  0  0
 35 36  1  0  0  0  0
 35 37  1  0  0  0  0
 35 38  1  0  0  0  0
 38 39  1  4  0  0  0
 38 40  2  0  0  0  0
 40 41  1  0  0  0  0
 41 42  1  0  0  0  0
 41 43  1  0  0  0  0
 41 44  1  0  0  0  0
 40 45  1  0  0  0  0
  9 45  1  0  0  0  0
 45 46  2  0  0  0  0
M  END
> <pActivity>
7.251811972993798

$$$$
CHEMBL3400936
  Mrv2316 04152410472D          

 46 47  0  0  0  0            999 V2000
   -0.3769   -0.1722    0.0000 H   0  0  0  0  0  0  0  0  0  0  0  0
   -0.5328   -0.9823    0.0000 O   0  0  0  0  0  0  0  0  0  0  0  0
    0.0908   -1.5224    0.0000 C   0  0  0  0  0  0  0  0  0  0  0  0
   -0.0651   -2.3325    0.0000 C   0  0  0  0  0  0  0  0  0  0  0  0
   -0.8446   -2.6026    0.0000 H   0  0  0  0  0  0  0  0  0  0  0  0
    0.5586   -2.8726    0.0000 C   0  0  0  0  0  0  0  0  0  0  0  0
    0.4027   -3.6828    0.0000 O   0  0  0  0  0  0  0  0  0  0  0  0
   -0.3769   -3.9528    0.0000 H   0  0  0  0  0  0  0  0  0  0  0  0
    1.3381   -2.6026    0.0000 C   0  0  0  0  0  0  0  0  0  0  0  0
    1.4940   -1.7925    0.0000 C   0  0  0  0  0  0  0  0  0  0  0  0
    0.8704   -1.2524    0.0000 C   0  0  0  0  0  0  0  0  0  0  0  0
    1.0263   -0.4422    0.0000 Cl  0  0  0  0  0  0  0  0  0  0  0  0
    2.2736   -1.5224    0.0000 C   0  0  0  0  0  0  0  0  0  0  0  0
    3.0531   -1.2524    0.0000 H   0  0  0  0  0  0  0  0  0  0  0  0
    2.1177   -2.3325    0.0000 H   0  0  0  0  0  0  0  0  0  0  0  0
    2.4295   -0.7123    0.0000 C   0  0  0  0  0  0  0  0  0  0  0  0
    1.8058   -0.1722    0.0000 O   0  0  0  0  0  0  0  0  0  0  0  0
    3.2090   -0.4422    0.0000 O   0  0  0  0  0  0  0  0  0  0  0  0
    3.8327   -0.9823    0.0000 C   0  0  0  0  0  0  0  0  0  0  0  0
    3.9886   -0.1722    0.0000 H   0  0  0  0  0  0  0  0  0  0  0  0
    4.6122   -0.7123    0.0000 C   0  0  0  0  0  0  0  0  0  0  0  0
    5.1020   -1.3762    0.0000 H   0  0  0  0  0  0  0  0  0  0  0  0
    5.4230   -0.5598    0.0000 H   0  0  0  0  0  0  0  0  0  0  0  0
    4.8275    0.0842    0.0000 H   0  0  0  0  0  0  0  0  0  0  0  0
    3.6768   -1.7925    0.0000 C   0  0  0  0  0  0  0  0  0  0  0  0
    4.3169   -1.2721    0.0000 O   0  0  0  0  0  0  0  0  0  0  0  0
    4.9561   -1.7938    0.0000 H   0  0  0  0  0  0  0  0  0  0  0  0
    4.5017   -1.8053    0.0000 C   0  0  0  0  0  0  0  0  0  0  0  0
    4.6050   -2.6238    0.0000 H   0  0  0  0  0  0  0  0  0  0  0  0
    4.9782   -2.4788    0.0000 H   0  0  0  0  0  0  0  0  0  0  0  0
    5.2392   -2.1751    0.0000 H   0  0  0  0  0  0  0  0  0  0  0  0
    4.3004   -2.3325    0.0000 C   0  0  0  0  0  0  0  0  0  0  0  0
    3.4755   -2.3197    0.0000 H   0  0  0  0  0  0  0  0  0  0  0  0
    3.6602   -2.8529    0.0000 H   0  0  0  0  0  0  0  0  0  0  0  0
    4.1445   -3.1427    0.0000 C   0  0  0  0  0  0  0  0  0  0  0  0
    4.2949   -3.9539    0.0000 H   0  0  0  0  0  0  0  0  0  0  0  0
    4.8365   -3.5918    0.0000 H   0  0  0  0  0  0  0  0  0  0  0  0
    3.3649   -3.4127    0.0000 C   0  0  0  0  0  0  0  0  0  0  0  0
    3.2090   -4.2229    0.0000 H   0  0  0  0  0  0  0  0  0  0  0  0
    2.7413   -2.8726    0.0000 C   0  0  0  0  0  0  0  0  0  0  0  0
    2.8972   -2.0625    0.0000 C   0  0  0  0  0  0  0  0  0  0  0  0
    3.2790   -2.7938    0.0000 H   0  0  0  0  0  0  0  0  0  0  0  0
    3.4373   -1.4389    0.0000 H   0  0  0  0  0  0  0  0  0  0  0  0
    2.3571   -2.6861    0.0000 H   0  0  0  0  0  0  0  0  0  0  0  0
    1.9618   -3.1427    0.0000 C   0  0  0  0  0  0  0  0  0  0  0  0
    1.8058   -3.9528    0.0000 O   0  0  0  0  0  0  0  0  0  0  0  0
  1  2  1  0  0  0  0
  2  3  1  0  0  0  0
  3  4  4  0  0  0  0
  4  5  1  0  0  0  0
  4  6  4  0  0  0  0
  6  7  1  0  0  0  0
  7  8  1  0  0  0  0
  6  9  4  0  0  0  0
  9 10  4  0  0  0  0
 10 11  4  0  0  0  0
  3 11  4  0  0  0  0
 11 12  1  0  0  0  0
 10 13  1  0  0  0  0
 13 14  1  0  0  0  0
 13 15  1  0  0  0  0
 13 16  1  0  0  0  0
 16 17  2  0  0  0  0
 16 18  1  0  0  0  0
 18 19  1  0  0  0  0
 19 20  1  0  0  0  0
 19 21  1  0  0  0  0
 21 22  1  0  0  0  0
 21 23  1  0  0  0  0
 21 24  1  0  0  0  0
 19 25  1  0  0  0  0
 25 26  1  0  0  0  0
 26 27  1  0  0  0  0
 25 28  1  0  0  0  0
 28 29  1  0  0  0  0
 28 30  1  0  0  0  0
 28 31  1  0  0  0  0
 25 32  1  0  0  0  0
 32 33  1  0  0  0  0
 32 34  1  0  0  0  0
 32 35  1  0  0  0  0
 35 36  1  0  0  0  0
 35 37  1  0  0  0  0
 35 38  1  0  0  0  0
 38 39  1  4  0  0  0
 38 40  2  0  0  0  0
 40 41  1  0  0  0  0
 41 42  1  0  0  0  0
 41 43  1  0  0  0  0
 41 44  1  0  0  0  0
 40 45  1  0  0  0  0
  9 45  1  0  0  0  0
 45 46  2  0  0  0  0
M  END
> <pActivity>
7.167491087293763

$$$$
CHEMBL5280678
  Mrv2316 04152410472D          

 45 46  0  0  0  0            999 V2000
   -0.3769   -0.1722    0.0000 H   0  0  0  0  0  0  0  0  0  0  0  0
   -0.5328   -0.9823    0.0000 O   0  0  0  0  0  0  0  0  0  0  0  0
    0.0908   -1.5224    0.0000 C   0  0  0  0  0  0  0  0  0  0  0  0
   -0.0651   -2.3325    0.0000 C   0  0  0  0  0  0  0  0  0  0  0  0
   -0.8446   -2.6026    0.0000 H   0  0  0  0  0  0  0  0  0  0  0  0
    0.5586   -2.8726    0.0000 C   0  0  0  0  0  0  0  0  0  0  0  0
    0.4027   -3.6828    0.0000 O   0  0  0  0  0  0  0  0  0  0  0  0
   -0.3769   -3.9528    0.0000 H   0  0  0  0  0  0  0  0  0  0  0  0
    1.3381   -2.6026    0.0000 C   0  0  0  0  0  0  0  0  0  0  0  0
    1.4940   -1.7925    0.0000 C   0  0  0  0  0  0  0  0  0  0  0  0
    0.8704   -1.2524    0.0000 C   0  0  0  0  0  0  0  0  0  0  0  0
    1.0263   -0.4422    0.0000 Cl  0  0  0  0  0  0  0  0  0  0  0  0
    2.2736   -1.5224    0.0000 C   0  0  0  0  0  0  0  0  0  0  0  0
    3.0531   -1.2524    0.0000 H   0  0  0  0  0  0  0  0  0  0  0  0
    2.1177   -2.3325    0.0000 H   0  0  0  0  0  0  0  0  0  0  0  0
    2.4295   -0.7123    0.0000 C   0  0  0  0  0  0  0  0  0  0  0  0
    1.8058   -0.1722    0.0000 O   0  0  0  0  0  0  0  0  0  0  0  0
    3.2090   -0.4422    0.0000 O   0  0  0  0  0  0  0  0  0  0  0  0
    3.8327   -0.9823    0.0000 C   0  0  0  0  0  0  0  0  0  0  0  0
    3.9886   -0.1722    0.0000 H   0  0  0  0  0  0  0  0  0  0  0  0
    4.6122   -0.7123    0.0000 C   0  0  0  0  0  0  0  0  0  0  0  0
    5.2359   -1.2524    0.0000 H   0  0  0  0  0  0  0  0  0  0  0  0
    5.3918   -0.4422    0.0000 H   0  0  0  0  0  0  0  0  0  0  0  0
    4.7681    0.0979    0.0000 H   0  0  0  0  0  0  0  0  0  0  0  0
    3.6768   -1.7925    0.0000 C   0  0  0  0  0  0  0  0  0  0  0  0
    3.5209   -2.6026    0.0000 H   0  0  0  0  0  0  0  0  0  0  0  0
    4.4563   -1.5224    0.0000 C   0  0  0  0  0  0  0  0  0  0  0  0
    4.7264   -2.3020    0.0000 H   0  0  0  0  0  0  0  0  0  0  0  0
    5.0800   -2.0625    0.0000 H   0  0  0  0  0  0  0  0  0  0  0  0
    5.2665   -1.6783    0.0000 H   0  0  0  0  0  0  0  0  0  0  0  0
    4.3004   -2.3325    0.0000 C   0  0  0  0  0  0  0  0  0  0  0  0
    4.6374   -3.0856    0.0000 H   0  0  0  0  0  0  0  0  0  0  0  0
    5.0084   -2.7561    0.0000 H   0  0  0  0  0  0  0  0  0  0  0  0
    4.1445   -3.1427    0.0000 C   0  0  0  0  0  0  0  0  0  0  0  0
    3.9301   -3.9393    0.0000 H   0  0  0  0  0  0  0  0  0  0  0  0
    4.6833   -3.7675    0.0000 H   0  0  0  0  0  0  0  0  0  0  0  0
    3.3649   -3.4127    0.0000 C   0  0  0  0  0  0  0  0  0  0  0  0
    2.8136   -4.0264    0.0000 H   0  0  0  0  0  0  0  0  0  0  0  0
    2.7413   -2.8726    0.0000 C   0  0  0  0  0  0  0  0  0  0  0  0
    2.8972   -2.0625    0.0000 C   0  0  0  0  0  0  0  0  0  0  0  0
    3.4373   -1.4389    0.0000 H   0  0  0  0  0  0  0  0  0  0  0  0
    3.1673   -2.8421    0.0000 H   0  0  0  0  0  0  0  0  0  0  0  0
    2.3571   -2.6861    0.0000 H   0  0  0  0  0  0  0  0  0  0  0  0
    1.9618   -3.1427    0.0000 C   0  0  0  0  0  0  0  0  0  0  0  0
    1.8058   -3.9528    0.0000 O   0  0  0  0  0  0  0  0  0  0  0  0
  1  2  1  0  0  0  0
  2  3  1  0  0  0  0
  3  4  4  0  0  0  0
  4  5  1  0  0  0  0
  4  6  4  0  0  0  0
  6  7  1  0  0  0  0
  7  8  1  0  0  0  0
  6  9  4  0  0  0  0
  9 10  4  0  0  0  0
 10 11  4  0  0  0  0
  3 11  4  0  0  0  0
 11 12  1  0  0  0  0
 10 13  1  0  0  0  0
 13 14  1  0  0  0  0
 13 15  1  0  0  0  0
 13 16  1  0  0  0  0
 16 17  2  0  0  0  0
 16 18  1  0  0  0  0
 18 19  1  0  0  0  0
 19 20  1  0  0  0  0
 19 21  1  0  0  0  0
 21 22  1  0  0  0  0
 21 23  1  0  0  0  0
 21 24  1  0  0  0  0
 19 25  1  0  0  0  0
 25 26  1  0  0  0  0
 25 27  1  0  0  0  0
 27 28  1  0  0  0  0
 27 29  1  0  0  0  0
 27 30  1  0  0  0  0
 25 31  1  0  0  0  0
 31 32  1  0  0  0  0
 31 33  1  0  0  0  0
 31 34  1  0  0  0  0
 34 35  1  0  0  0  0
 34 36  1  0  0  0  0
 34 37  1  0  0  0  0
 37 38  1  4  0  0  0
 37 39  2  0  0  0  0
 39 40  1  0  0  0  0
 40 41  1  0  0  0  0
 40 42  1  0  0  0  0
 40 43  1  0  0  0  0
 39 44  1  0  0  0  0
  9 44  1  0  0  0  0
 44 45  2  0  0  0  0
M  END
> <pActivity>
7.698970004336018

$$$$
CHEMBL228018
  Mrv2316 04152410472D          

 48 50  0  0  0  0            999 V2000
    7.1447    0.0000    0.0000 H   0  0  0  0  0  0  0  0  0  0  0  0
    6.4302   -0.4125    0.0000 O   0  0  0  0  0  0  0  0  0  0  0  0
    6.4302   -1.2375    0.0000 C   0  0  0  0  0  0  0  0  0  0  0  0
    7.1447   -1.6500    0.0000 C   0  0  0  0  0  0  0  0  0  0  0  0
    7.8592   -1.2375    0.0000 H   0  0  0  0  0  0  0  0  0  0  0  0
    7.1447   -2.4750    0.0000 C   0  0  0  0  0  0  0  0  0  0  0  0
    7.8592   -2.8875    0.0000 H   0  0  0  0  0  0  0  0  0  0  0  0
    6.4302   -2.8875    0.0000 C   0  0  0  0  0  0  0  0  0  0  0  0
    6.4302   -3.7125    0.0000 C   0  0  0  0  0  0  0  0  0  0  0  0
    5.6066   -3.7605    0.0000 H   0  0  0  0  0  0  0  0  0  0  0  0
    5.9769   -4.4018    0.0000 H   0  0  0  0  0  0  0  0  0  0  0  0
    7.1447   -4.1250    0.0000 C   0  0  0  0  0  0  0  0  0  0  0  0
    7.9683   -4.0770    0.0000 H   0  0  0  0  0  0  0  0  0  0  0  0
    7.5981   -3.4357    0.0000 H   0  0  0  0  0  0  0  0  0  0  0  0
    7.1447   -4.9500    0.0000 N   0  0  0  0  0  0  0  0  0  0  0  0
    6.4302   -5.3625    0.0000 H   0  0  0  0  0  0  0  0  0  0  0  0
    7.8592   -5.3625    0.0000 C   0  0  0  0  0  0  0  0  0  0  0  0
    8.5737   -4.9500    0.0000 N   0  0  0  0  0  0  0  0  0  0  0  0
    9.2881   -5.3625    0.0000 C   0  0  0  0  0  0  0  0  0  0  0  0
   10.0026   -4.9500    0.0000 H   0  0  0  0  0  0  0  0  0  0  0  0
    9.2881   -6.1875    0.0000 C   0  0  0  0  0  0  0  0  0  0  0  0
   10.0026   -6.6000    0.0000 C   0  0  0  0  0  0  0  0  0  0  0  0
   10.0026   -7.4250    0.0000 O   0  0  0  0  0  0  0  0  0  0  0  0
   10.7171   -6.1875    0.0000 N   0  0  0  0  0  0  0  0  0  0  0  0
   11.4315   -6.6000    0.0000 H   0  0  0  0  0  0  0  0  0  0  0  0
   10.7171   -5.3625    0.0000 H   0  0  0  0  0  0  0  0  0  0  0  0
    8.5737   -6.6000    0.0000 C   0  0  0  0  0  0  0  0  0  0  0  0
    8.5737   -7.4250    0.0000 N   0  0  0  0  0  0  0  0  0  0  0  0
    9.2881   -7.8375    0.0000 H   0  0  0  0  0  0  0  0  0  0  0  0
    7.8592   -7.8375    0.0000 C   0  0  0  0  0  0  0  0  0  0  0  0
    7.8592   -8.6625    0.0000 C   0  0  0  0  0  0  0  0  0  0  0  0
    8.5737   -9.0750    0.0000 H   0  0  0  0  0  0  0  0  0  0  0  0
    7.1447   -9.0750    0.0000 C   0  0  0  0  0  0  0  0  0  0  0  0
    7.1447   -9.9000    0.0000 H   0  0  0  0  0  0  0  0  0  0  0  0
    6.4302   -8.6625    0.0000 C   0  0  0  0  0  0  0  0  0  0  0  0
    5.7158   -9.0750    0.0000 H   0  0  0  0  0  0  0  0  0  0  0  0
    6.4302   -7.8375    0.0000 C   0  0  0  0  0  0  0  0  0  0  0  0
    5.7158   -7.4250    0.0000 C   0  0  0  0  0  0  0  0  0  0  0  0
    6.1283   -6.7105    0.0000 H   0  0  0  0  0  0  0  0  0  0  0  0
    5.0013   -7.0125    0.0000 H   0  0  0  0  0  0  0  0  0  0  0  0
    5.3033   -8.1395    0.0000 H   0  0  0  0  0  0  0  0  0  0  0  0
    7.1447   -7.4250    0.0000 C   0  0  0  0  0  0  0  0  0  0  0  0
    7.1447   -6.6000    0.0000 H   0  0  0  0  0  0  0  0  0  0  0  0
    7.8592   -6.1875    0.0000 N   0  0  0  0  0  0  0  0  0  0  0  0
    5.7158   -2.4750    0.0000 C   0  0  0  0  0  0  0  0  0  0  0  0
    5.0013   -2.8875    0.0000 H   0  0  0  0  0  0  0  0  0  0  0  0
    5.7158   -1.6500    0.0000 C   0  0  0  0  0  0  0  0  0  0  0  0
    5.0013   -1.2375    0.0000 Cl  0  0  0  0  0  0  0  0  0  0  0  0
  1  2  1  0  0  0  0
  2  3  1  0  0  0  0
  3  4  4  0  0  0  0
  4  5  1  0  0  0  0
  4  6  4  0  0  0  0
  6  7  1  0  0  0  0
  6  8  4  0  0  0  0
  8  9  1  0  0  0  0
  9 10  1  0  0  0  0
  9 11  1  0  0  0  0
  9 12  1  0  0  0  0
 12 13  1  0  0  0  0
 12 14  1  0  0  0  0
 12 15  1  0  0  0  0
 15 16  1  0  0  0  0
 15 17  1  0  0  0  0
 17 18  4  0  0  0  0
 18 19  4  0  0  0  0
 19 20  1  0  0  0  0
 19 21  4  0  0  0  0
 21 22  1  0  0  0  0
 22 23  2  0  0  0  0
 22 24  1  0  0  0  0
 24 25  1  0  0  0  0
 24 26  1  0  0  0  0
 21 27  4  0  0  0  0
 27 28  1  0  0  0  0
 28 29  1  0  0  0  0
 28 30  1  0  0  0  0
 30 31  4  0  0  0  0
 31 32  1  0  0  0  0
 31 33  4  0  0  0  0
 33 34  1  0  0  0  0
 33 35  4  0  0  0  0
 35 36  1  0  0  0  0
 35 37  4  0  0  0  0
 37 38  1  0  0  0  0
 38 39  1  0  0  0  0
 38 40  1  0  0  0  0
 38 41  1  0  0  0  0
 37 42  4  0  0  0  0
 30 42  4  0  0  0  0
 42 43  1  0  0  0  0
 27 44  4  0  0  0  0
 17 44  4  0  0  0  0
  8 45  4  0  0  0  0
 45 46  1  0  0  0  0
 45 47  4  0  0  0  0
  3 47  4  0  0  0  0
 47 48  1  0  0  0  0
M  END
> <pActivity>
7.346787486224656

$$$$
CHEMBL387668
  Mrv2316 04152410472D          

 48 50  0  0  0  0            999 V2000
    7.1447    0.0000    0.0000 H   0  0  0  0  0  0  0  0  0  0  0  0
    6.4302   -0.4125    0.0000 O   0  0  0  0  0  0  0  0  0  0  0  0
    6.4302   -1.2375    0.0000 C   0  0  0  0  0  0  0  0  0  0  0  0
    7.1447   -1.6500    0.0000 C   0  0  0  0  0  0  0  0  0  0  0  0
    7.8592   -1.2375    0.0000 H   0  0  0  0  0  0  0  0  0  0  0  0
    7.1447   -2.4750    0.0000 C   0  0  0  0  0  0  0  0  0  0  0  0
    7.8592   -2.8875    0.0000 H   0  0  0  0  0  0  0  0  0  0  0  0
    6.4302   -2.8875    0.0000 C   0  0  0  0  0  0  0  0  0  0  0  0
    6.4302   -3.7125    0.0000 C   0  0  0  0  0  0  0  0  0  0  0  0
    5.6066   -3.7605    0.0000 H   0  0  0  0  0  0  0  0  0  0  0  0
    5.9769   -4.4018    0.0000 H   0  0  0  0  0  0  0  0  0  0  0  0
    7.1447   -4.1250    0.0000 C   0  0  0  0  0  0  0  0  0  0  0  0
    7.9683   -4.0770    0.0000 H   0  0  0  0  0  0  0  0  0  0  0  0
    7.5981   -3.4357    0.0000 H   0  0  0  0  0  0  0  0  0  0  0  0
    7.1447   -4.9500    0.0000 N   0  0  0  0  0  0  0  0  0  0  0  0
    6.4302   -5.3625    0.0000 H   0  0  0  0  0  0  0  0  0  0  0  0
    7.8592   -5.3625    0.0000 C   0  0  0  0  0  0  0  0  0  0  0  0
    8.5737   -4.9500    0.0000 N   0  0  0  0  0  0  0  0  0  0  0  0
    9.2881   -5.3625    0.0000 C   0  0  0  0  0  0  0  0  0  0  0  0
   10.0026   -4.9500    0.0000 H   0  0  0  0  0  0  0  0  0  0  0  0
    9.2881   -6.1875    0.0000 C   0  0  0  0  0  0  0  0  0  0  0  0
   10.0026   -6.6000    0.0000 C   0  0  0  0  0  0  0  0  0  0  0  0
   10.0026   -7.4250    0.0000 O   0  0  0  0  0  0  0  0  0  0  0  0
   10.7171   -6.1875    0.0000 N   0  0  0  0  0  0  0  0  0  0  0  0
   11.4315   -6.6000    0.0000 H   0  0  0  0  0  0  0  0  0  0  0  0
   10.7171   -5.3625    0.0000 H   0  0  0  0  0  0  0  0  0  0  0  0
    8.5737   -6.6000    0.0000 C   0  0  0  0  0  0  0  0  0  0  0  0
    8.5737   -7.4250    0.0000 N   0  0  0  0  0  0  0  0  0  0  0  0
    9.2881   -7.8375    0.0000 H   0  0  0  0  0  0  0  0  0  0  0  0
    7.8592   -7.8375    0.0000 C   0  0  0  0  0  0  0  0  0  0  0  0
    7.8592   -8.6625    0.0000 C   0  0  0  0  0  0  0  0  0  0  0  0
    8.5737   -9.0750    0.0000 H   0  0  0  0  0  0  0  0  0  0  0  0
    7.1447   -9.0750    0.0000 C   0  0  0  0  0  0  0  0  0  0  0  0
    7.1447   -9.9000    0.0000 H   0  0  0  0  0  0  0  0  0  0  0  0
    6.4302   -8.6625    0.0000 C   0  0  0  0  0  0  0  0  0  0  0  0
    5.7158   -9.0750    0.0000 H   0  0  0  0  0  0  0  0  0  0  0  0
    6.4302   -7.8375    0.0000 C   0  0  0  0  0  0  0  0  0  0  0  0
    5.7158   -7.4250    0.0000 C   0  0  0  0  0  0  0  0  0  0  0  0
    6.1283   -6.7105    0.0000 H   0  0  0  0  0  0  0  0  0  0  0  0
    5.0013   -7.0125    0.0000 H   0  0  0  0  0  0  0  0  0  0  0  0
    5.3033   -8.1395    0.0000 H   0  0  0  0  0  0  0  0  0  0  0  0
    7.1447   -7.4250    0.0000 C   0  0  0  0  0  0  0  0  0  0  0  0
    7.1447   -6.6000    0.0000 H   0  0  0  0  0  0  0  0  0  0  0  0
    7.8592   -6.1875    0.0000 N   0  0  0  0  0  0  0  0  0  0  0  0
    5.7158   -2.4750    0.0000 C   0  0  0  0  0  0  0  0  0  0  0  0
    5.0013   -2.8875    0.0000 H   0  0  0  0  0  0  0  0  0  0  0  0
    5.7158   -1.6500    0.0000 C   0  0  0  0  0  0  0  0  0  0  0  0
    5.0013   -1.2375    0.0000 F   0  0  0  0  0  0  0  0  0  0  0  0
  1  2  1  0  0  0  0
  2  3  1  0  0  0  0
  3  4  4  0  0  0  0
  4  5  1  0  0  0  0
  4  6  4  0  0  0  0
  6  7  1  0  0  0  0
  6  8  4  0  0  0  0
  8  9  1  0  0  0  0
  9 10  1  0  0  0  0
  9 11  1  0  0  0  0
  9 12  1  0  0  0  0
 12 13  1  0  0  0  0
 12 14  1  0  0  0  0
 12 15  1  0  0  0  0
 15 16  1  0  0  0  0
 15 17  1  0  0  0  0
 17 18  4  0  0  0  0
 18 19  4  0  0  0  0
 19 20  1  0  0  0  0
 19 21  4  0  0  0  0
 21 22  1  0  0  0  0
 22 23  2  0  0  0  0
 22 24  1  0  0  0  0
 24 25  1  0  0  0  0
 24 26  1  0  0  0  0
 21 27  4  0  0  0  0
 27 28  1  0  0  0  0
 28 29  1  0  0  0  0
 28 30  1  0  0  0  0
 30 31  4  0  0  0  0
 31 32  1  0  0  0  0
 31 33  4  0  0  0  0
 33 34  1  0  0  0  0
 33 35  4  0  0  0  0
 35 36  1  0  0  0  0
 35 37  4  0  0  0  0
 37 38  1  0  0  0  0
 38 39  1  0  0  0  0
 38 40  1  0  0  0  0
 38 41  1  0  0  0  0
 37 42  4  0  0  0  0
 30 42  4  0  0  0  0
 42 43  1  0  0  0  0
 27 44  4  0  0  0  0
 17 44  4  0  0  0  0
  8 45  4  0  0  0  0
 45 46  1  0  0  0  0
 45 47  4  0  0  0  0
  3 47  4  0  0  0  0
 47 48  1  0  0  0  0
M  END
> <pActivity>
7.193820026016112

$$$$
CHEMBL226770
  Mrv2316 04152410472D          

 51 53  0  0  0  0            999 V2000
    7.1447    0.0000    0.0000 H   0  0  0  0  0  0  0  0  0  0  0  0
    6.4302   -0.4125    0.0000 O   0  0  0  0  0  0  0  0  0  0  0  0
    6.4302   -1.2375    0.0000 C   0  0  0  0  0  0  0  0  0  0  0  0
    7.1447   -1.6500    0.0000 C   0  0  0  0  0  0  0  0  0  0  0  0
    7.8592   -1.2375    0.0000 H   0  0  0  0  0  0  0  0  0  0  0  0
    7.1447   -2.4750    0.0000 C   0  0  0  0  0  0  0  0  0  0  0  0
    7.8592   -2.8875    0.0000 H   0  0  0  0  0  0  0  0  0  0  0  0
    6.4302   -2.8875    0.0000 C   0  0  0  0  0  0  0  0  0  0  0  0
    6.4302   -3.7125    0.0000 C   0  0  0  0  0  0  0  0  0  0  0  0
    5.6066   -3.7605    0.0000 H   0  0  0  0  0  0  0  0  0  0  0  0
    5.9769   -4.4018    0.0000 H   0  0  0  0  0  0  0  0  0  0  0  0
    7.1447   -4.1250    0.0000 C   0  0  0  0  0  0  0  0  0  0  0  0
    7.9683   -4.0770    0.0000 H   0  0  0  0  0  0  0  0  0  0  0  0
    7.5981   -3.4357    0.0000 H   0  0  0  0  0  0  0  0  0  0  0  0
    7.1447   -4.9500    0.0000 N   0  0  0  0  0  0  0  0  0  0  0  0
    6.4302   -5.3625    0.0000 H   0  0  0  0  0  0  0  0  0  0  0  0
    7.8592   -5.3625    0.0000 C   0  0  0  0  0  0  0  0  0  0  0  0
    8.5737   -4.9500    0.0000 N   0  0  0  0  0  0  0  0  0  0  0  0
    9.2881   -5.3625    0.0000 C   0  0  0  0  0  0  0  0  0  0  0  0
   10.0026   -4.9500    0.0000 H   0  0  0  0  0  0  0  0  0  0  0  0
    9.2881   -6.1875    0.0000 C   0  0  0  0  0  0  0  0  0  0  0  0
   10.0026   -6.6000    0.0000 C   0  0  0  0  0  0  0  0  0  0  0  0
   10.0026   -7.4250    0.0000 O   0  0  0  0  0  0  0  0  0  0  0  0
   10.7171   -6.1875    0.0000 N   0  0  0  0  0  0  0  0  0  0  0  0
   11.4315   -6.6000    0.0000 H   0  0  0  0  0  0  0  0  0  0  0  0
   10.7171   -5.3625    0.0000 H   0  0  0  0  0  0  0  0  0  0  0  0
    8.5737   -6.6000    0.0000 C   0  0  0  0  0  0  0  0  0  0  0  0
    8.5737   -7.4250    0.0000 N   0  0  0  0  0  0  0  0  0  0  0  0
    9.2881   -7.8375    0.0000 H   0  0  0  0  0  0  0  0  0  0  0  0
    7.8592   -7.8375    0.0000 C   0  0  0  0  0  0  0  0  0  0  0  0
    7.8592   -8.6625    0.0000 C   0  0  0  0  0  0  0  0  0  0  0  0
    8.5737   -9.0750    0.0000 H   0  0  0  0  0  0  0  0  0  0  0  0
    7.1447   -9.0750    0.0000 C   0  0  0  0  0  0  0  0  0  0  0  0
    7.1447   -9.9000    0.0000 H   0  0  0  0  0  0  0  0  0  0  0  0
    6.4302   -8.6625    0.0000 C   0  0  0  0  0  0  0  0  0  0  0  0
    5.7158   -9.0750    0.0000 H   0  0  0  0  0  0  0  0  0  0  0  0
    6.4302   -7.8375    0.0000 C   0  0  0  0  0  0  0  0  0  0  0  0
    5.7158   -7.4250    0.0000 C   0  0  0  0  0  0  0  0  0  0  0  0
    6.1283   -6.7105    0.0000 H   0  0  0  0  0  0  0  0  0  0  0  0
    5.0013   -7.0125    0.0000 H   0  0  0  0  0  0  0  0  0  0  0  0
    5.3033   -8.1395    0.0000 H   0  0  0  0  0  0  0  0  0  0  0  0
    7.1447   -7.4250    0.0000 C   0  0  0  0  0  0  0  0  0  0  0  0
    7.1447   -6.6000    0.0000 H   0  0  0  0  0  0  0  0  0  0  0  0
    7.8592   -6.1875    0.0000 N   0  0  0  0  0  0  0  0  0  0  0  0
    5.7158   -2.4750    0.0000 C   0  0  0  0  0  0  0  0  0  0  0  0
    5.0013   -2.8875    0.0000 H   0  0  0  0  0  0  0  0  0  0  0  0
    5.7158   -1.6500    0.0000 C   0  0  0  0  0  0  0  0  0  0  0  0
    5.0013   -1.2375    0.0000 C   0  0  0  0  0  0  0  0  0  0  0  0
    5.4138   -0.5230    0.0000 H   0  0  0  0  0  0  0  0  0  0  0  0
    4.2868   -0.8250    0.0000 H   0  0  0  0  0  0  0  0  0  0  0  0
    4.5888   -1.9520    0.0000 H   0  0  0  0  0  0  0  0  0  0  0  0
  1  2  1  0  0  0  0
  2  3  1  0  0  0  0
  3  4  4  0  0  0  0
  4  5  1  0  0  0  0
  4  6  4  0  0  0  0
  6  7  1  0  0  0  0
  6  8  4  0  0  0  0
  8  9  1  0  0  0  0
  9 10  1  0  0  0  0
  9 11  1  0  0  0  0
  9 12  1  0  0  0  0
 12 13  1  0  0  0  0
 12 14  1  0  0  0  0
 12 15  1  0  0  0  0
 15 16  1  0  0  0  0
 15 17  1  0  0  0  0
 17 18  4  0  0  0  0
 18 19  4  0  0  0  0
 19 20  1  0  0  0  0
 19 21  4  0  0  0  0
 21 22  1  0  0  0  0
 22 23  2  0  0  0  0
 22 24  1  0  0  0  0
 24 25  1  0  0  0  0
 24 26  1  0  0  0  0
 21 27  4  0  0  0  0
 27 28  1  0  0  0  0
 28 29  1  0  0  0  0
 28 30  1  0  0  0  0
 30 31  4  0  0  0  0
 31 32  1  0  0  0  0
 31 33  4  0  0  0  0
 33 34  1  0  0  0  0
 33 35  4  0  0  0  0
 35 36  1  0  0  0  0
 35 37  4  0  0  0  0
 37 38  1  0  0  0  0
 38 39  1  0  0  0  0
 38 40  1  0  0  0  0
 38 41  1  0  0  0  0
 37 42  4  0  0  0  0
 30 42  4  0  0  0  0
 42 43  1  0  0  0  0
 27 44  4  0  0  0  0
 17 44  4  0  0  0  0
  8 45  4  0  0  0  0
 45 46  1  0  0  0  0
 45 47  4  0  0  0  0
  3 47  4  0  0  0  0
 47 48  1  0  0  0  0
 48 49  1  0  0  0  0
 48 50  1  0  0  0  0
 48 51  1  0  0  0  0
M  END
> <pActivity>
6.886056647693163

$$$$
CHEMBL487451
  Mrv2316 04152410472D          

 54 57  0  0  0  0            999 V2000
    1.4289   -1.6500    0.0000 H   0  0  0  0  0  0  0  0  0  0  0  0
    1.4289   -2.4750    0.0000 C   0  0  0  0  0  0  0  0  0  0  0  0
    2.1434   -2.8875    0.0000 N   0  0  0  0  0  0  0  0  0  0  0  0
    2.1434   -3.7125    0.0000 C   0  0  0  0  0  0  0  0  0  0  0  0
    2.8579   -4.1250    0.0000 N   0  0  0  0  0  0  0  0  0  0  0  0
    2.8579   -4.9500    0.0000 H   0  0  0  0  0  0  0  0  0  0  0  0
    3.5724   -3.7125    0.0000 C   0  0  0  0  0  0  0  0  0  0  0  0
    3.5724   -2.8875    0.0000 C   0  0  0  0  0  0  0  0  0  0  0  0
    2.8579   -2.4750    0.0000 H   0  0  0  0  0  0  0  0  0  0  0  0
    4.2868   -2.4750    0.0000 C   0  0  0  0  0  0  0  0  0  0  0  0
    4.2868   -1.6500    0.0000 H   0  0  0  0  0  0  0  0  0  0  0  0
    5.0013   -2.8875    0.0000 C   0  0  0  0  0  0  0  0  0  0  0  0
    5.7158   -2.4750    0.0000 N   0  0  0  0  0  0  0  0  0  0  0  0
    5.7158   -1.6500    0.0000 C   0  0  0  0  0  0  0  0  0  0  0  0
    5.2624   -0.9607    0.0000 H   0  0  0  0  0  0  0  0  0  0  0  0
    4.8922   -1.6020    0.0000 H   0  0  0  0  0  0  0  0  0  0  0  0
    6.4302   -1.2375    0.0000 C   0  0  0  0  0  0  0  0  0  0  0  0
    6.8005   -0.5003    0.0000 H   0  0  0  0  0  0  0  0  0  0  0  0
    6.0600   -0.5003    0.0000 H   0  0  0  0  0  0  0  0  0  0  0  0
    7.1447   -1.6500    0.0000 O   0  0  0  0  0  0  0  0  0  0  0  0
    7.1447   -2.4750    0.0000 C   0  0  0  0  0  0  0  0  0  0  0  0
    7.5981   -3.1643    0.0000 H   0  0  0  0  0  0  0  0  0  0  0  0
    7.9683   -2.5230    0.0000 H   0  0  0  0  0  0  0  0  0  0  0  0
    6.4302   -2.8875    0.0000 C   0  0  0  0  0  0  0  0  0  0  0  0
    6.0600   -3.6247    0.0000 H   0  0  0  0  0  0  0  0  0  0  0  0
    6.8005   -3.6247    0.0000 H   0  0  0  0  0  0  0  0  0  0  0  0
    5.0013   -3.7125    0.0000 C   0  0  0  0  0  0  0  0  0  0  0  0
    5.7158   -4.1250    0.0000 H   0  0  0  0  0  0  0  0  0  0  0  0
    4.2868   -4.1250    0.0000 C   0  0  0  0  0  0  0  0  0  0  0  0
    4.2868   -4.9500    0.0000 H   0  0  0  0  0  0  0  0  0  0  0  0
    1.4289   -4.1250    0.0000 N   0  0  0  0  0  0  0  0  0  0  0  0
    0.7145   -3.7125    0.0000 C   0  0  0  0  0  0  0  0  0  0  0  0
    0.0000   -4.1250    0.0000 N   0  0  0  0  0  0  0  0  0  0  0  0
   -0.7145   -3.7125    0.0000 H   0  0  0  0  0  0  0  0  0  0  0  0
    0.0000   -4.9500    0.0000 C   0  0  0  0  0  0  0  0  0  0  0  0
    0.4533   -5.6393    0.0000 H   0  0  0  0  0  0  0  0  0  0  0  0
    0.8236   -4.9980    0.0000 H   0  0  0  0  0  0  0  0  0  0  0  0
   -0.7145   -5.3625    0.0000 C   0  0  0  0  0  0  0  0  0  0  0  0
   -0.7145   -6.1875    0.0000 C   0  0  0  0  0  0  0  0  0  0  0  0
   -0.0000   -6.6000    0.0000 F   0  0  0  0  0  0  0  0  0  0  0  0
   -1.4289   -6.6000    0.0000 C   0  0  0  0  0  0  0  0  0  0  0  0
   -1.4289   -7.4250    0.0000 H   0  0  0  0  0  0  0  0  0  0  0  0
   -2.1434   -6.1875    0.0000 C   0  0  0  0  0  0  0  0  0  0  0  0
   -2.8579   -6.6000    0.0000 F   0  0  0  0  0  0  0  0  0  0  0  0
   -2.1434   -5.3625    0.0000 C   0  0  0  0  0  0  0  0  0  0  0  0
   -2.8579   -4.9500    0.0000 H   0  0  0  0  0  0  0  0  0  0  0  0
   -1.4289   -4.9500    0.0000 C   0  0  0  0  0  0  0  0  0  0  0  0
   -1.4289   -4.1250    0.0000 F   0  0  0  0  0  0  0  0  0  0  0  0
    0.7145   -2.8875    0.0000 C   0  0  0  0  0  0  0  0  0  0  0  0
    0.0000   -2.4750    0.0000 C   0  0  0  0  0  0  0  0  0  0  0  0
    0.0000   -1.6500    0.0000 O   0  0  0  0  0  0  0  0  0  0  0  0
   -0.7145   -2.8875    0.0000 N   0  0  0  0  0  0  0  0  0  0  0  0
   -1.1678   -2.1982    0.0000 H   0  0  0  0  0  0  0  0  0  0  0  0
   -1.5381   -2.8395    0.0000 H   0  0  0  0  0  0  0  0  0  0  0  0
  1  2  1  0  0  0  0
  2  3  4  0  0  0  0
  3  4  4  0  0  0  0
  4  5  1  0  0  0  0
  5  6  1  0  0  0  0
  5  7  1  0  0  0  0
  7  8  4  0  0  0  0
  8  9  1  0  0  0  0
  8 10  4  0  0  0  0
 10 11  1  0  0  0  0
 10 12  4  0  0  0  0
 12 13  1  0  0  0  0
 13 14  1  0  0  0  0
 14 15  1  0  0  0  0
 14 16  1  0  0  0  0
 14 17  1  0  0  0  0
 17 18  1  0  0  0  0
 17 19  1  0  0  0  0
 17 20  1  0  0  0  0
 20 21  1  0  0  0  0
 21 22  1  0  0  0  0
 21 23  1  0  0  0  0
 21 24  1  0  0  0  0
 13 24  1  0  0  0  0
 24 25  1  0  0  0  0
 24 26  1  0  0  0  0
 12 27  4  0  0  0  0
 27 28  1  0  0  0  0
 27 29  4  0  0  0  0
  7 29  4  0  0  0  0
 29 30  1  0  0  0  0
  4 31  4  0  0  0  0
 31 32  4  0  0  0  0
 32 33  1  0  0  0  0
 33 34  1  0  0  0  0
 33 35  1  0  0  0  0
 35 36  1  0  0  0  0
 35 37  1  0  0  0  0
 35 38  1  0  0  0  0
 38 39  4  0  0  0  0
 39 40  1  0  0  0  0
 39 41  4  0  0  0  0
 41 42  1  0  0  0  0
 41 43  4  0  0  0  0
 43 44  1  0  0  0  0
 43 45  4  0  0  0  0
 45 46  1  0  0  0  0
 45 47  4  0  0  0  0
 38 47  4  0  0  0  0
 47 48  1  0  0  0  0
 32 49  4  0  0  0  0
  2 49  4  0  0  0  0
 49 50  1  0  0  0  0
 50 51  2  0  0  0  0
 50 52  1  0  0  0  0
 52 53  1  0  0  0  0
 52 54  1  0  0  0  0
M  END
> <pActivity>
9.154901959985741

$$$$
CHEMBL519249
  Mrv2316 04152410472D          

 54 57  0  0  0  0            999 V2000
    1.4289   -1.6500    0.0000 H   0  0  0  0  0  0  0  0  0  0  0  0
    1.4289   -2.4750    0.0000 C   0  0  0  0  0  0  0  0  0  0  0  0
    2.1434   -2.8875    0.0000 N   0  0  0  0  0  0  0  0  0  0  0  0
    2.1434   -3.7125    0.0000 C   0  0  0  0  0  0  0  0  0  0  0  0
    2.8579   -4.1250    0.0000 N   0  0  0  0  0  0  0  0  0  0  0  0
    2.8579   -4.9500    0.0000 H   0  0  0  0  0  0  0  0  0  0  0  0
    3.5724   -3.7125    0.0000 C   0  0  0  0  0  0  0  0  0  0  0  0
    3.5724   -2.8875    0.0000 C   0  0  0  0  0  0  0  0  0  0  0  0
    2.8579   -2.4750    0.0000 H   0  0  0  0  0  0  0  0  0  0  0  0
    4.2868   -2.4750    0.0000 C   0  0  0  0  0  0  0  0  0  0  0  0
    4.2868   -1.6500    0.0000 H   0  0  0  0  0  0  0  0  0  0  0  0
    5.0013   -2.8875    0.0000 C   0  0  0  0  0  0  0  0  0  0  0  0
    5.7158   -2.4750    0.0000 N   0  0  0  0  0  0  0  0  0  0  0  0
    5.7158   -1.6500    0.0000 C   0  0  0  0  0  0  0  0  0  0  0  0
    5.2624   -0.9607    0.0000 H   0  0  0  0  0  0  0  0  0  0  0  0
    4.8922   -1.6020    0.0000 H   0  0  0  0  0  0  0  0  0  0  0  0
    6.4302   -1.2375    0.0000 C   0  0  0  0  0  0  0  0  0  0  0  0
    6.8005   -0.5003    0.0000 H   0  0  0  0  0  0  0  0  0  0  0  0
    6.0600   -0.5003    0.0000 H   0  0  0  0  0  0  0  0  0  0  0  0
    7.1447   -1.6500    0.0000 O   0  0  0  0  0  0  0  0  0  0  0  0
    7.1447   -2.4750    0.0000 C   0  0  0  0  0  0  0  0  0  0  0  0
    7.5981   -3.1643    0.0000 H   0  0  0  0  0  0  0  0  0  0  0  0
    7.9683   -2.5230    0.0000 H   0  0  0  0  0  0  0  0  0  0  0  0
    6.4302   -2.8875    0.0000 C   0  0  0  0  0  0  0  0  0  0  0  0
    6.0600   -3.6247    0.0000 H   0  0  0  0  0  0  0  0  0  0  0  0
    6.8005   -3.6247    0.0000 H   0  0  0  0  0  0  0  0  0  0  0  0
    5.0013   -3.7125    0.0000 C   0  0  0  0  0  0  0  0  0  0  0  0
    5.7158   -4.1250    0.0000 H   0  0  0  0  0  0  0  0  0  0  0  0
    4.2868   -4.1250    0.0000 C   0  0  0  0  0  0  0  0  0  0  0  0
    4.2868   -4.9500    0.0000 H   0  0  0  0  0  0  0  0  0  0  0  0
    1.4289   -4.1250    0.0000 N   0  0  0  0  0  0  0  0  0  0  0  0
    0.7145   -3.7125    0.0000 C   0  0  0  0  0  0  0  0  0  0  0  0
    0.0000   -4.1250    0.0000 N   0  0  0  0  0  0  0  0  0  0  0  0
   -0.7145   -3.7125    0.0000 H   0  0  0  0  0  0  0  0  0  0  0  0
    0.0000   -4.9500    0.0000 C   0  0  0  0  0  0  0  0  0  0  0  0
    0.4533   -5.6393    0.0000 H   0  0  0  0  0  0  0  0  0  0  0  0
    0.8236   -4.9980    0.0000 H   0  0  0  0  0  0  0  0  0  0  0  0
   -0.7145   -5.3625    0.0000 C   0  0  0  0  0  0  0  0  0  0  0  0
   -0.7145   -6.1875    0.0000 C   0  0  0  0  0  0  0  0  0  0  0  0
   -0.0000   -6.6000    0.0000 H   0  0  0  0  0  0  0  0  0  0  0  0
   -1.4289   -6.6000    0.0000 C   0  0  0  0  0  0  0  0  0  0  0  0
   -1.4289   -7.4250    0.0000 F   0  0  0  0  0  0  0  0  0  0  0  0
   -2.1434   -6.1875    0.0000 C   0  0  0  0  0  0  0  0  0  0  0  0
   -2.8579   -6.6000    0.0000 H   0  0  0  0  0  0  0  0  0  0  0  0
   -2.1434   -5.3625    0.0000 C   0  0  0  0  0  0  0  0  0  0  0  0
   -2.8579   -4.9500    0.0000 F   0  0  0  0  0  0  0  0  0  0  0  0
   -1.4289   -4.9500    0.0000 C   0  0  0  0  0  0  0  0  0  0  0  0
   -1.4289   -4.1250    0.0000 F   0  0  0  0  0  0  0  0  0  0  0  0
    0.7145   -2.8875    0.0000 C   0  0  0  0  0  0  0  0  0  0  0  0
    0.0000   -2.4750    0.0000 C   0  0  0  0  0  0  0  0  0  0  0  0
    0.0000   -1.6500    0.0000 O   0  0  0  0  0  0  0  0  0  0  0  0
   -0.7145   -2.8875    0.0000 N   0  0  0  0  0  0  0  0  0  0  0  0
   -1.1678   -2.1982    0.0000 H   0  0  0  0  0  0  0  0  0  0  0  0
   -1.5381   -2.8395    0.0000 H   0  0  0  0  0  0  0  0  0  0  0  0
  1  2  1  0  0  0  0
  2  3  4  0  0  0  0
  3  4  4  0  0  0  0
  4  5  1  0  0  0  0
  5  6  1  0  0  0  0
  5  7  1  0  0  0  0
  7  8  4  0  0  0  0
  8  9  1  0  0  0  0
  8 10  4  0  0  0  0
 10 11  1  0  0  0  0
 10 12  4  0  0  0  0
 12 13  1  0  0  0  0
 13 14  1  0  0  0  0
 14 15  1  0  0  0  0
 14 16  1  0  0  0  0
 14 17  1  0  0  0  0
 17 18  1  0  0  0  0
 17 19  1  0  0  0  0
 17 20  1  0  0  0  0
 20 21  1  0  0  0  0
 21 22  1  0  0  0  0
 21 23  1  0  0  0  0
 21 24  1  0  0  0  0
 13 24  1  0  0  0  0
 24 25  1  0  0  0  0
 24 26  1  0  0  0  0
 12 27  4  0  0  0  0
 27 28  1  0  0  0  0
 27 29  4  0  0  0  0
  7 29  4  0  0  0  0
 29 30  1  0  0  0  0
  4 31  4  0  0  0  0
 31 32  4  0  0  0  0
 32 33  1  0  0  0  0
 33 34  1  0  0  0  0
 33 35  1  0  0  0  0
 35 36  1  0  0  0  0
 35 37  1  0  0  0  0
 35 38  1  0  0  0  0
 38 39  4  0  0  0  0
 39 40  1  0  0  0  0
 39 41  4  0  0  0  0
 41 42  1  0  0  0  0
 41 43  4  0  0  0  0
 43 44  1  0  0  0  0
 43 45  4  0  0  0  0
 45 46  1  0  0  0  0
 45 47  4  0  0  0  0
 38 47  4  0  0  0  0
 47 48  1  0  0  0  0
 32 49  4  0  0  0  0
  2 49  4  0  0  0  0
 49 50  1  0  0  0  0
 50 51  2  0  0  0  0
 50 52  1  0  0  0  0
 52 53  1  0  0  0  0
 52 54  1  0  0  0  0
M  END
> <pActivity>
8.744727494896694

$$$$
CHEMBL487450
  Mrv2316 04152410472D          

 54 57  0  0  0  0            999 V2000
    1.4289   -1.6500    0.0000 H   0  0  0  0  0  0  0  0  0  0  0  0
    1.4289   -2.4750    0.0000 C   0  0  0  0  0  0  0  0  0  0  0  0
    2.1434   -2.8875    0.0000 N   0  0  0  0  0  0  0  0  0  0  0  0
    2.1434   -3.7125    0.0000 C   0  0  0  0  0  0  0  0  0  0  0  0
    2.8579   -4.1250    0.0000 N   0  0  0  0  0  0  0  0  0  0  0  0
    2.8579   -4.9500    0.0000 H   0  0  0  0  0  0  0  0  0  0  0  0
    3.5724   -3.7125    0.0000 C   0  0  0  0  0  0  0  0  0  0  0  0
    3.5724   -2.8875    0.0000 C   0  0  0  0  0  0  0  0  0  0  0  0
    2.8579   -2.4750    0.0000 H   0  0  0  0  0  0  0  0  0  0  0  0
    4.2868   -2.4750    0.0000 C   0  0  0  0  0  0  0  0  0  0  0  0
    4.2868   -1.6500    0.0000 H   0  0  0  0  0  0  0  0  0  0  0  0
    5.0013   -2.8875    0.0000 C   0  0  0  0  0  0  0  0  0  0  0  0
    5.7158   -2.4750    0.0000 N   0  0  0  0  0  0  0  0  0  0  0  0
    5.7158   -1.6500    0.0000 C   0  0  0  0  0  0  0  0  0  0  0  0
    5.2624   -0.9607    0.0000 H   0  0  0  0  0  0  0  0  0  0  0  0
    4.8922   -1.6020    0.0000 H   0  0  0  0  0  0  0  0  0  0  0  0
    6.4302   -1.2375    0.0000 C   0  0  0  0  0  0  0  0  0  0  0  0
    6.8005   -0.5003    0.0000 H   0  0  0  0  0  0  0  0  0  0  0  0
    6.0600   -0.5003    0.0000 H   0  0  0  0  0  0  0  0  0  0  0  0
    7.1447   -1.6500    0.0000 O   0  0  0  0  0  0  0  0  0  0  0  0
    7.1447   -2.4750    0.0000 C   0  0  0  0  0  0  0  0  0  0  0  0
    7.5981   -3.1643    0.0000 H   0  0  0  0  0  0  0  0  0  0  0  0
    7.9683   -2.5230    0.0000 H   0  0  0  0  0  0  0  0  0  0  0  0
    6.4302   -2.8875    0.0000 C   0  0  0  0  0  0  0  0  0  0  0  0
    6.0600   -3.6247    0.0000 H   0  0  0  0  0  0  0  0  0  0  0  0
    6.8005   -3.6247    0.0000 H   0  0  0  0  0  0  0  0  0  0  0  0
    5.0013   -3.7125    0.0000 C   0  0  0  0  0  0  0  0  0  0  0  0
    5.7158   -4.1250    0.0000 H   0  0  0  0  0  0  0  0  0  0  0  0
    4.2868   -4.1250    0.0000 C   0  0  0  0  0  0  0  0  0  0  0  0
    4.2868   -4.9500    0.0000 H   0  0  0  0  0  0  0  0  0  0  0  0
    1.4289   -4.1250    0.0000 N   0  0  0  0  0  0  0  0  0  0  0  0
    0.7145   -3.7125    0.0000 C   0  0  0  0  0  0  0  0  0  0  0  0
    0.0000   -4.1250    0.0000 N   0  0  0  0  0  0  0  0  0  0  0  0
   -0.7145   -3.7125    0.0000 H   0  0  0  0  0  0  0  0  0  0  0  0
    0.0000   -4.9500    0.0000 C   0  0  0  0  0  0  0  0  0  0  0  0
    0.4533   -5.6393    0.0000 H   0  0  0  0  0  0  0  0  0  0  0  0
    0.8236   -4.9980    0.0000 H   0  0  0  0  0  0  0  0  0  0  0  0
   -0.7145   -5.3625    0.0000 C   0  0  0  0  0  0  0  0  0  0  0  0
   -0.7145   -6.1875    0.0000 C   0  0  0  0  0  0  0  0  0  0  0  0
   -0.0000   -6.6000    0.0000 H   0  0  0  0  0  0  0  0  0  0  0  0
   -1.4289   -6.6000    0.0000 C   0  0  0  0  0  0  0  0  0  0  0  0
   -1.4289   -7.4250    0.0000 F   0  0  0  0  0  0  0  0  0  0  0  0
   -2.1434   -6.1875    0.0000 C   0  0  0  0  0  0  0  0  0  0  0  0
   -2.8579   -6.6000    0.0000 H   0  0  0  0  0  0  0  0  0  0  0  0
   -2.1434   -5.3625    0.0000 C   0  0  0  0  0  0  0  0  0  0  0  0
   -2.8579   -4.9500    0.0000 F   0  0  0  0  0  0  0  0  0  0  0  0
   -1.4289   -4.9500    0.0000 C   0  0  0  0  0  0  0  0  0  0  0  0
   -1.4289   -4.1250    0.0000 H   0  0  0  0  0  0  0  0  0  0  0  0
    0.7145   -2.8875    0.0000 C   0  0  0  0  0  0  0  0  0  0  0  0
    0.0000   -2.4750    0.0000 C   0  0  0  0  0  0  0  0  0  0  0  0
    0.0000   -1.6500    0.0000 O   0  0  0  0  0  0  0  0  0  0  0  0
   -0.7145   -2.8875    0.0000 N   0  0  0  0  0  0  0  0  0  0  0  0
   -1.1678   -2.1982    0.0000 H   0  0  0  0  0  0  0  0  0  0  0  0
   -1.5381   -2.8395    0.0000 H   0  0  0  0  0  0  0  0  0  0  0  0
  1  2  1  0  0  0  0
  2  3  4  0  0  0  0
  3  4  4  0  0  0  0
  4  5  1  0  0  0  0
  5  6  1  0  0  0  0
  5  7  1  0  0  0  0
  7  8  4  0  0  0  0
  8  9  1  0  0  0  0
  8 10  4  0  0  0  0
 10 11  1  0  0  0  0
 10 12  4  0  0  0  0
 12 13  1  0  0  0  0
 13 14  1  0  0  0  0
 14 15  1  0  0  0  0
 14 16  1  0  0  0  0
 14 17  1  0  0  0  0
 17 18  1  0  0  0  0
 17 19  1  0  0  0  0
 17 20  1  0  0  0  0
 20 21  1  0  0  0  0
 21 22  1  0  0  0  0
 21 23  1  0  0  0  0
 21 24  1  0  0  0  0
 13 24  1  0  0  0  0
 24 25  1  0  0  0  0
 24 26  1  0  0  0  0
 12 27  4  0  0  0  0
 27 28  1  0  0  0  0
 27 29  4  0  0  0  0
  7 29  4  0  0  0  0
 29 30  1  0  0  0  0
  4 31  4  0  0  0  0
 31 32  4  0  0  0  0
 32 33  1  0  0  0  0
 33 34  1  0  0  0  0
 33 35  1  0  0  0  0
 35 36  1  0  0  0  0
 35 37  1  0  0  0  0
 35 38  1  0  0  0  0
 38 39  4  0  0  0  0
 39 40  1  0  0  0  0
 39 41  4  0  0  0  0
 41 42  1  0  0  0  0
 41 43  4  0  0  0  0
 43 44  1  0  0  0  0
 43 45  4  0  0  0  0
 45 46  1  0  0  0  0
 45 47  4  0  0  0  0
 38 47  4  0  0  0  0
 47 48  1  0  0  0  0
 32 49  4  0  0  0  0
  2 49  4  0  0  0  0
 49 50  1  0  0  0  0
 50 51  2  0  0  0  0
 50 52  1  0  0  0  0
 52 53  1  0  0  0  0
 52 54  1  0  0  0  0
M  END
> <pActivity>
8.259637310505756

$$$$
CHEMBL519410
  Mrv2316 04152410472D          

 54 57  0  0  0  0            999 V2000
    1.4289   -1.6500    0.0000 H   0  0  0  0  0  0  0  0  0  0  0  0
    1.4289   -2.4750    0.0000 C   0  0  0  0  0  0  0  0  0  0  0  0
    2.1434   -2.8875    0.0000 N   0  0  0  0  0  0  0  0  0  0  0  0
    2.1434   -3.7125    0.0000 C   0  0  0  0  0  0  0  0  0  0  0  0
    2.8579   -4.1250    0.0000 N   0  0  0  0  0  0  0  0  0  0  0  0
    2.8579   -4.9500    0.0000 H   0  0  0  0  0  0  0  0  0  0  0  0
    3.5724   -3.7125    0.0000 C   0  0  0  0  0  0  0  0  0  0  0  0
    3.5724   -2.8875    0.0000 C   0  0  0  0  0  0  0  0  0  0  0  0
    2.8579   -2.4750    0.0000 H   0  0  0  0  0  0  0  0  0  0  0  0
    4.2868   -2.4750    0.0000 C   0  0  0  0  0  0  0  0  0  0  0  0
    4.2868   -1.6500    0.0000 H   0  0  0  0  0  0  0  0  0  0  0  0
    5.0013   -2.8875    0.0000 C   0  0  0  0  0  0  0  0  0  0  0  0
    5.7158   -2.4750    0.0000 N   0  0  0  0  0  0  0  0  0  0  0  0
    5.7158   -1.6500    0.0000 C   0  0  0  0  0  0  0  0  0  0  0  0
    5.2624   -0.9607    0.0000 H   0  0  0  0  0  0  0  0  0  0  0  0
    4.8922   -1.6020    0.0000 H   0  0  0  0  0  0  0  0  0  0  0  0
    6.4302   -1.2375    0.0000 C   0  0  0  0  0  0  0  0  0  0  0  0
    6.8005   -0.5003    0.0000 H   0  0  0  0  0  0  0  0  0  0  0  0
    6.0600   -0.5003    0.0000 H   0  0  0  0  0  0  0  0  0  0  0  0
    7.1447   -1.6500    0.0000 O   0  0  0  0  0  0  0  0  0  0  0  0
    7.1447   -2.4750    0.0000 C   0  0  0  0  0  0  0  0  0  0  0  0
    7.5981   -3.1643    0.0000 H   0  0  0  0  0  0  0  0  0  0  0  0
    7.9683   -2.5230    0.0000 H   0  0  0  0  0  0  0  0  0  0  0  0
    6.4302   -2.8875    0.0000 C   0  0  0  0  0  0  0  0  0  0  0  0
    6.0600   -3.6247    0.0000 H   0  0  0  0  0  0  0  0  0  0  0  0
    6.8005   -3.6247    0.0000 H   0  0  0  0  0  0  0  0  0  0  0  0
    5.0013   -3.7125    0.0000 C   0  0  0  0  0  0  0  0  0  0  0  0
    5.7158   -4.1250    0.0000 H   0  0  0  0  0  0  0  0  0  0  0  0
    4.2868   -4.1250    0.0000 C   0  0  0  0  0  0  0  0  0  0  0  0
    4.2868   -4.9500    0.0000 H   0  0  0  0  0  0  0  0  0  0  0  0
    1.4289   -4.1250    0.0000 N   0  0  0  0  0  0  0  0  0  0  0  0
    0.7145   -3.7125    0.0000 C   0  0  0  0  0  0  0  0  0  0  0  0
    0.0000   -4.1250    0.0000 N   0  0  0  0  0  0  0  0  0  0  0  0
   -0.7145   -3.7125    0.0000 H   0  0  0  0  0  0  0  0  0  0  0  0
    0.0000   -4.9500    0.0000 C   0  0  0  0  0  0  0  0  0  0  0  0
    0.4533   -5.6393    0.0000 H   0  0  0  0  0  0  0  0  0  0  0  0
    0.8236   -4.9980    0.0000 H   0  0  0  0  0  0  0  0  0  0  0  0
   -0.7145   -5.3625    0.0000 C   0  0  0  0  0  0  0  0  0  0  0  0
   -0.7145   -6.1875    0.0000 C   0  0  0  0  0  0  0  0  0  0  0  0
   -0.0000   -6.6000    0.0000 F   0  0  0  0  0  0  0  0  0  0  0  0
   -1.4289   -6.6000    0.0000 C   0  0  0  0  0  0  0  0  0  0  0  0
   -1.4289   -7.4250    0.0000 H   0  0  0  0  0  0  0  0  0  0  0  0
   -2.1434   -6.1875    0.0000 C   0  0  0  0  0  0  0  0  0  0  0  0
   -2.8579   -6.6000    0.0000 H   0  0  0  0  0  0  0  0  0  0  0  0
   -2.1434   -5.3625    0.0000 C   0  0  0  0  0  0  0  0  0  0  0  0
   -2.8579   -4.9500    0.0000 H   0  0  0  0  0  0  0  0  0  0  0  0
   -1.4289   -4.9500    0.0000 C   0  0  0  0  0  0  0  0  0  0  0  0
   -1.4289   -4.1250    0.0000 F   0  0  0  0  0  0  0  0  0  0  0  0
    0.7145   -2.8875    0.0000 C   0  0  0  0  0  0  0  0  0  0  0  0
    0.0000   -2.4750    0.0000 C   0  0  0  0  0  0  0  0  0  0  0  0
    0.0000   -1.6500    0.0000 O   0  0  0  0  0  0  0  0  0  0  0  0
   -0.7145   -2.8875    0.0000 N   0  0  0  0  0  0  0  0  0  0  0  0
   -1.1678   -2.1982    0.0000 H   0  0  0  0  0  0  0  0  0  0  0  0
   -1.5381   -2.8395    0.0000 H   0  0  0  0  0  0  0  0  0  0  0  0
  1  2  1  0  0  0  0
  2  3  4  0  0  0  0
  3  4  4  0  0  0  0
  4  5  1  0  0  0  0
  5  6  1  0  0  0  0
  5  7  1  0  0  0  0
  7  8  4  0  0  0  0
  8  9  1  0  0  0  0
  8 10  4  0  0  0  0
 10 11  1  0  0  0  0
 10 12  4  0  0  0  0
 12 13  1  0  0  0  0
 13 14  1  0  0  0  0
 14 15  1  0  0  0  0
 14 16  1  0  0  0  0
 14 17  1  0  0  0  0
 17 18  1  0  0  0  0
 17 19  1  0  0  0  0
 17 20  1  0  0  0  0
 20 21  1  0  0  0  0
 21 22  1  0  0  0  0
 21 23  1  0  0  0  0
 21 24  1  0  0  0  0
 13 24  1  0  0  0  0
 24 25  1  0  0  0  0
 24 26  1  0  0  0  0
 12 27  4  0  0  0  0
 27 28  1  0  0  0  0
 27 29  4  0  0  0  0
  7 29  4  0  0  0  0
 29 30  1  0  0  0  0
  4 31  4  0  0  0  0
 31 32  4  0  0  0  0
 32 33  1  0  0  0  0
 33 34  1  0  0  0  0
 33 35  1  0  0  0  0
 35 36  1  0  0  0  0
 35 37  1  0  0  0  0
 35 38  1  0  0  0  0
 38 39  4  0  0  0  0
 39 40  1  0  0  0  0
 39 41  4  0  0  0  0
 41 42  1  0  0  0  0
 41 43  4  0  0  0  0
 43 44  1  0  0  0  0
 43 45  4  0  0  0  0
 45 46  1  0  0  0  0
 45 47  4  0  0  0  0
 38 47  4  0  0  0  0
 47 48  1  0  0  0  0
 32 49  4  0  0  0  0
  2 49  4  0  0  0  0
 49 50  1  0  0  0  0
 50 51  2  0  0  0  0
 50 52  1  0  0  0  0
 52 53  1  0  0  0  0
 52 54  1  0  0  0  0
M  END
> <pActivity>
8.657577319177793

$$$$
CHEMBL488814
  Mrv2316 04152410472D          

 54 57  0  0  0  0            999 V2000
    1.4289   -1.6500    0.0000 H   0  0  0  0  0  0  0  0  0  0  0  0
    1.4289   -2.4750    0.0000 C   0  0  0  0  0  0  0  0  0  0  0  0
    2.1434   -2.8875    0.0000 N   0  0  0  0  0  0  0  0  0  0  0  0
    2.1434   -3.7125    0.0000 C   0  0  0  0  0  0  0  0  0  0  0  0
    2.8579   -4.1250    0.0000 N   0  0  0  0  0  0  0  0  0  0  0  0
    2.8579   -4.9500    0.0000 H   0  0  0  0  0  0  0  0  0  0  0  0
    3.5724   -3.7125    0.0000 C   0  0  0  0  0  0  0  0  0  0  0  0
    3.5724   -2.8875    0.0000 C   0  0  0  0  0  0  0  0  0  0  0  0
    2.8579   -2.4750    0.0000 H   0  0  0  0  0  0  0  0  0  0  0  0
    4.2868   -2.4750    0.0000 C   0  0  0  0  0  0  0  0  0  0  0  0
    4.2868   -1.6500    0.0000 H   0  0  0  0  0  0  0  0  0  0  0  0
    5.0013   -2.8875    0.0000 C   0  0  0  0  0  0  0  0  0  0  0  0
    5.7158   -2.4750    0.0000 N   0  0  0  0  0  0  0  0  0  0  0  0
    5.7158   -1.6500    0.0000 C   0  0  0  0  0  0  0  0  0  0  0  0
    5.2624   -0.9607    0.0000 H   0  0  0  0  0  0  0  0  0  0  0  0
    4.8922   -1.6020    0.0000 H   0  0  0  0  0  0  0  0  0  0  0  0
    6.4302   -1.2375    0.0000 C   0  0  0  0  0  0  0  0  0  0  0  0
    6.8005   -0.5003    0.0000 H   0  0  0  0  0  0  0  0  0  0  0  0
    6.0600   -0.5003    0.0000 H   0  0  0  0  0  0  0  0  0  0  0  0
    7.1447   -1.6500    0.0000 O   0  0  0  0  0  0  0  0  0  0  0  0
    7.1447   -2.4750    0.0000 C   0  0  0  0  0  0  0  0  0  0  0  0
    7.5981   -3.1643    0.0000 H   0  0  0  0  0  0  0  0  0  0  0  0
    7.9683   -2.5230    0.0000 H   0  0  0  0  0  0  0  0  0  0  0  0
    6.4302   -2.8875    0.0000 C   0  0  0  0  0  0  0  0  0  0  0  0
    6.0600   -3.6247    0.0000 H   0  0  0  0  0  0  0  0  0  0  0  0
    6.8005   -3.6247    0.0000 H   0  0  0  0  0  0  0  0  0  0  0  0
    5.0013   -3.7125    0.0000 C   0  0  0  0  0  0  0  0  0  0  0  0
    5.7158   -4.1250    0.0000 H   0  0  0  0  0  0  0  0  0  0  0  0
    4.2868   -4.1250    0.0000 C   0  0  0  0  0  0  0  0  0  0  0  0
    4.2868   -4.9500    0.0000 H   0  0  0  0  0  0  0  0  0  0  0  0
    1.4289   -4.1250    0.0000 N   0  0  0  0  0  0  0  0  0  0  0  0
    0.7145   -3.7125    0.0000 C   0  0  0  0  0  0  0  0  0  0  0  0
    0.0000   -4.1250    0.0000 N   0  0  0  0  0  0  0  0  0  0  0  0
   -0.7145   -3.7125    0.0000 H   0  0  0  0  0  0  0  0  0  0  0  0
    0.0000   -4.9500    0.0000 C   0  0  0  0  0  0  0  0  0  0  0  0
    0.4533   -5.6393    0.0000 H   0  0  0  0  0  0  0  0  0  0  0  0
    0.8236   -4.9980    0.0000 H   0  0  0  0  0  0  0  0  0  0  0  0
   -0.7145   -5.3625    0.0000 C   0  0  0  0  0  0  0  0  0  0  0  0
   -0.7145   -6.1875    0.0000 C   0  0  0  0  0  0  0  0  0  0  0  0
   -0.0000   -6.6000    0.0000 H   0  0  0  0  0  0  0  0  0  0  0  0
   -1.4289   -6.6000    0.0000 C   0  0  0  0  0  0  0  0  0  0  0  0
   -1.4289   -7.4250    0.0000 F   0  0  0  0  0  0  0  0  0  0  0  0
   -2.1434   -6.1875    0.0000 C   0  0  0  0  0  0  0  0  0  0  0  0
   -2.8579   -6.6000    0.0000 H   0  0  0  0  0  0  0  0  0  0  0  0
   -2.1434   -5.3625    0.0000 C   0  0  0  0  0  0  0  0  0  0  0  0
   -2.8579   -4.9500    0.0000 H   0  0  0  0  0  0  0  0  0  0  0  0
   -1.4289   -4.9500    0.0000 C   0  0  0  0  0  0  0  0  0  0  0  0
   -1.4289   -4.1250    0.0000 F   0  0  0  0  0  0  0  0  0  0  0  0
    0.7145   -2.8875    0.0000 C   0  0  0  0  0  0  0  0  0  0  0  0
    0.0000   -2.4750    0.0000 C   0  0  0  0  0  0  0  0  0  0  0  0
    0.0000   -1.6500    0.0000 O   0  0  0  0  0  0  0  0  0  0  0  0
   -0.7145   -2.8875    0.0000 N   0  0  0  0  0  0  0  0  0  0  0  0
   -1.1678   -2.1982    0.0000 H   0  0  0  0  0  0  0  0  0  0  0  0
   -1.5381   -2.8395    0.0000 H   0  0  0  0  0  0  0  0  0  0  0  0
  1  2  1  0  0  0  0
  2  3  4  0  0  0  0
  3  4  4  0  0  0  0
  4  5  1  0  0  0  0
  5  6  1  0  0  0  0
  5  7  1  0  0  0  0
  7  8  4  0  0  0  0
  8  9  1  0  0  0  0
  8 10  4  0  0  0  0
 10 11  1  0  0  0  0
 10 12  4  0  0  0  0
 12 13  1  0  0  0  0
 13 14  1  0  0  0  0
 14 15  1  0  0  0  0
 14 16  1  0  0  0  0
 14 17  1  0  0  0  0
 17 18  1  0  0  0  0
 17 19  1  0  0  0  0
 17 20  1  0  0  0  0
 20 21  1  0  0  0  0
 21 22  1  0  0  0  0
 21 23  1  0  0  0  0
 21 24  1  0  0  0  0
 13 24  1  0  0  0  0
 24 25  1  0  0  0  0
 24 26  1  0  0  0  0
 12 27  4  0  0  0  0
 27 28  1  0  0  0  0
 27 29  4  0  0  0  0
  7 29  4  0  0  0  0
 29 30  1  0  0  0  0
  4 31  4  0  0  0  0
 31 32  4  0  0  0  0
 32 33  1  0  0  0  0
 33 34  1  0  0  0  0
 33 35  1  0  0  0  0
 35 36  1  0  0  0  0
 35 37  1  0  0  0  0
 35 38  1  0  0  0  0
 38 39  4  0  0  0  0
 39 40  1  0  0  0  0
 39 41  4  0  0  0  0
 41 42  1  0  0  0  0
 41 43  4  0  0  0  0
 43 44  1  0  0  0  0
 43 45  4  0  0  0  0
 45 46  1  0  0  0  0
 45 47  4  0  0  0  0
 38 47  4  0  0  0  0
 47 48  1  0  0  0  0
 32 49  4  0  0  0  0
  2 49  4  0  0  0  0
 49 50  1  0  0  0  0
 50 51  2  0  0  0  0
 50 52  1  0  0  0  0
 52 53  1  0  0  0  0
 52 54  1  0  0  0  0
M  END
> <pActivity>
8.795880017344075

$$$$
CHEMBL529443
  Mrv2316 04152410472D          

 54 57  0  0  0  0            999 V2000
    1.4289   -1.6500    0.0000 H   0  0  0  0  0  0  0  0  0  0  0  0
    1.4289   -2.4750    0.0000 C   0  0  0  0  0  0  0  0  0  0  0  0
    2.1434   -2.8875    0.0000 N   0  0  0  0  0  0  0  0  0  0  0  0
    2.1434   -3.7125    0.0000 C   0  0  0  0  0  0  0  0  0  0  0  0
    2.8579   -4.1250    0.0000 N   0  0  0  0  0  0  0  0  0  0  0  0
    2.8579   -4.9500    0.0000 H   0  0  0  0  0  0  0  0  0  0  0  0
    3.5724   -3.7125    0.0000 C   0  0  0  0  0  0  0  0  0  0  0  0
    3.5724   -2.8875    0.0000 C   0  0  0  0  0  0  0  0  0  0  0  0
    2.8579   -2.4750    0.0000 H   0  0  0  0  0  0  0  0  0  0  0  0
    4.2868   -2.4750    0.0000 C   0  0  0  0  0  0  0  0  0  0  0  0
    4.2868   -1.6500    0.0000 H   0  0  0  0  0  0  0  0  0  0  0  0
    5.0013   -2.8875    0.0000 C   0  0  0  0  0  0  0  0  0  0  0  0
    5.7158   -2.4750    0.0000 N   0  0  0  0  0  0  0  0  0  0  0  0
    5.7158   -1.6500    0.0000 C   0  0  0  0  0  0  0  0  0  0  0  0
    5.2624   -0.9607    0.0000 H   0  0  0  0  0  0  0  0  0  0  0  0
    4.8922   -1.6020    0.0000 H   0  0  0  0  0  0  0  0  0  0  0  0
    6.4302   -1.2375    0.0000 C   0  0  0  0  0  0  0  0  0  0  0  0
    6.8005   -0.5003    0.0000 H   0  0  0  0  0  0  0  0  0  0  0  0
    6.0600   -0.5003    0.0000 H   0  0  0  0  0  0  0  0  0  0  0  0
    7.1447   -1.6500    0.0000 O   0  0  0  0  0  0  0  0  0  0  0  0
    7.1447   -2.4750    0.0000 C   0  0  0  0  0  0  0  0  0  0  0  0
    7.5981   -3.1643    0.0000 H   0  0  0  0  0  0  0  0  0  0  0  0
    7.9683   -2.5230    0.0000 H   0  0  0  0  0  0  0  0  0  0  0  0
    6.4302   -2.8875    0.0000 C   0  0  0  0  0  0  0  0  0  0  0  0
    6.0600   -3.6247    0.0000 H   0  0  0  0  0  0  0  0  0  0  0  0
    6.8005   -3.6247    0.0000 H   0  0  0  0  0  0  0  0  0  0  0  0
    5.0013   -3.7125    0.0000 C   0  0  0  0  0  0  0  0  0  0  0  0
    5.7158   -4.1250    0.0000 H   0  0  0  0  0  0  0  0  0  0  0  0
    4.2868   -4.1250    0.0000 C   0  0  0  0  0  0  0  0  0  0  0  0
    4.2868   -4.9500    0.0000 H   0  0  0  0  0  0  0  0  0  0  0  0
    1.4289   -4.1250    0.0000 N   0  0  0  0  0  0  0  0  0  0  0  0
    0.7145   -3.7125    0.0000 C   0  0  0  0  0  0  0  0  0  0  0  0
    0.0000   -4.1250    0.0000 N   0  0  0  0  0  0  0  0  0  0  0  0
   -0.7145   -3.7125    0.0000 H   0  0  0  0  0  0  0  0  0  0  0  0
    0.0000   -4.9500    0.0000 C   0  0  0  0  0  0  0  0  0  0  0  0
    0.4533   -5.6393    0.0000 H   0  0  0  0  0  0  0  0  0  0  0  0
    0.8236   -4.9980    0.0000 H   0  0  0  0  0  0  0  0  0  0  0  0
   -0.7145   -5.3625    0.0000 C   0  0  0  0  0  0  0  0  0  0  0  0
   -0.7145   -6.1875    0.0000 C   0  0  0  0  0  0  0  0  0  0  0  0
   -0.0000   -6.6000    0.0000 H   0  0  0  0  0  0  0  0  0  0  0  0
   -1.4289   -6.6000    0.0000 C   0  0  0  0  0  0  0  0  0  0  0  0
   -1.4289   -7.4250    0.0000 H   0  0  0  0  0  0  0  0  0  0  0  0
   -2.1434   -6.1875    0.0000 C   0  0  0  0  0  0  0  0  0  0  0  0
   -2.8579   -6.6000    0.0000 H   0  0  0  0  0  0  0  0  0  0  0  0
   -2.1434   -5.3625    0.0000 C   0  0  0  0  0  0  0  0  0  0  0  0
   -2.8579   -4.9500    0.0000 F   0  0  0  0  0  0  0  0  0  0  0  0
   -1.4289   -4.9500    0.0000 C   0  0  0  0  0  0  0  0  0  0  0  0
   -1.4289   -4.1250    0.0000 F   0  0  0  0  0  0  0  0  0  0  0  0
    0.7145   -2.8875    0.0000 C   0  0  0  0  0  0  0  0  0  0  0  0
    0.0000   -2.4750    0.0000 C   0  0  0  0  0  0  0  0  0  0  0  0
    0.0000   -1.6500    0.0000 O   0  0  0  0  0  0  0  0  0  0  0  0
   -0.7145   -2.8875    0.0000 N   0  0  0  0  0  0  0  0  0  0  0  0
   -1.1678   -2.1982    0.0000 H   0  0  0  0  0  0  0  0  0  0  0  0
   -1.5381   -2.8395    0.0000 H   0  0  0  0  0  0  0  0  0  0  0  0
  1  2  1  0  0  0  0
  2  3  4  0  0  0  0
  3  4  4  0  0  0  0
  4  5  1  0  0  0  0
  5  6  1  0  0  0  0
  5  7  1  0  0  0  0
  7  8  4  0  0  0  0
  8  9  1  0  0  0  0
  8 10  4  0  0  0  0
 10 11  1  0  0  0  0
 10 12  4  0  0  0  0
 12 13  1  0  0  0  0
 13 14  1  0  0  0  0
 14 15  1  0  0  0  0
 14 16  1  0  0  0  0
 14 17  1  0  0  0  0
 17 18  1  0  0  0  0
 17 19  1  0  0  0  0
 17 20  1  0  0  0  0
 20 21  1  0  0  0  0
 21 22  1  0  0  0  0
 21 23  1  0  0  0  0
 21 24  1  0  0  0  0
 13 24  1  0  0  0  0
 24 25  1  0  0  0  0
 24 26  1  0  0  0  0
 12 27  4  0  0  0  0
 27 28  1  0  0  0  0
 27 29  4  0  0  0  0
  7 29  4  0  0  0  0
 29 30  1  0  0  0  0
  4 31  4  0  0  0  0
 31 32  4  0  0  0  0
 32 33  1  0  0  0  0
 33 34  1  0  0  0  0
 33 35  1  0  0  0  0
 35 36  1  0  0  0  0
 35 37  1  0  0  0  0
 35 38  1  0  0  0  0
 38 39  4  0  0  0  0
 39 40  1  0  0  0  0
 39 41  4  0  0  0  0
 41 42  1  0  0  0  0
 41 43  4  0  0  0  0
 43 44  1  0  0  0  0
 43 45  4  0  0  0  0
 45 46  1  0  0  0  0
 45 47  4  0  0  0  0
 38 47  4  0  0  0  0
 47 48  1  0  0  0  0
 32 49  4  0  0  0  0
  2 49  4  0  0  0  0
 49 50  1  0  0  0  0
 50 51  2  0  0  0  0
 50 52  1  0  0  0  0
 52 53  1  0  0  0  0
 52 54  1  0  0  0  0
M  END
> <pActivity>
8.67778070526608

$$$$
CHEMBL487460
  Mrv2316 04152410472D          

 55 58  0  0  0  0            999 V2000
    3.5724   -6.1875    0.0000 H   0  0  0  0  0  0  0  0  0  0  0  0
    2.8579   -6.6000    0.0000 O   0  0  0  0  0  0  0  0  0  0  0  0
    2.8579   -7.4250    0.0000 C   0  0  0  0  0  0  0  0  0  0  0  0
    3.5724   -7.8375    0.0000 C   0  0  0  0  0  0  0  0  0  0  0  0
    4.2868   -7.4250    0.0000 H   0  0  0  0  0  0  0  0  0  0  0  0
    3.5724   -8.6625    0.0000 C   0  0  0  0  0  0  0  0  0  0  0  0
    4.2868   -9.0750    0.0000 H   0  0  0  0  0  0  0  0  0  0  0  0
    2.8579   -9.0750    0.0000 C   0  0  0  0  0  0  0  0  0  0  0  0
    2.8579   -9.9000    0.0000 H   0  0  0  0  0  0  0  0  0  0  0  0
    2.1434   -8.6625    0.0000 C   0  0  0  0  0  0  0  0  0  0  0  0
    1.4289   -9.0750    0.0000 C   0  0  0  0  0  0  0  0  0  0  0  0
    1.4289   -8.2500    0.0000 H   0  0  0  0  0  0  0  0  0  0  0  0
    2.1434   -9.4875    0.0000 H   0  0  0  0  0  0  0  0  0  0  0  0
    1.4289   -9.9000    0.0000 N   0  0  0  0  0  0  0  0  0  0  0  0
    1.8414  -10.6145    0.0000 H   0  0  0  0  0  0  0  0  0  0  0  0
    0.7145  -10.3125    0.0000 C   0  0  0  0  0  0  0  0  0  0  0  0
    0.7145  -11.1375    0.0000 N   0  0  0  0  0  0  0  0  0  0  0  0
    0.0000  -11.5500    0.0000 C   0  0  0  0  0  0  0  0  0  0  0  0
    0.0000  -12.3750    0.0000 N   0  0  0  0  0  0  0  0  0  0  0  0
    0.7145  -12.7875    0.0000 H   0  0  0  0  0  0  0  0  0  0  0  0
   -0.7145  -12.7875    0.0000 C   0  0  0  0  0  0  0  0  0  0  0  0
   -0.7145  -13.6125    0.0000 C   0  0  0  0  0  0  0  0  0  0  0  0
    0.0000  -14.0250    0.0000 H   0  0  0  0  0  0  0  0  0  0  0  0
   -1.4289  -14.0250    0.0000 C   0  0  0  0  0  0  0  0  0  0  0  0
   -1.4289  -14.8500    0.0000 H   0  0  0  0  0  0  0  0  0  0  0  0
   -2.1434  -13.6125    0.0000 C   0  0  0  0  0  0  0  0  0  0  0  0
   -2.8579  -14.0250    0.0000 N   0  0  0  0  0  0  0  0  0  0  0  0
   -2.8579  -14.8500    0.0000 C   0  0  0  0  0  0  0  0  0  0  0  0
   -2.4045  -15.5393    0.0000 H   0  0  0  0  0  0  0  0  0  0  0  0
   -2.0343  -14.8980    0.0000 H   0  0  0  0  0  0  0  0  0  0  0  0
   -3.5724  -15.2625    0.0000 C   0  0  0  0  0  0  0  0  0  0  0  0
   -3.9426  -15.9997    0.0000 H   0  0  0  0  0  0  0  0  0  0  0  0
   -3.2021  -15.9997    0.0000 H   0  0  0  0  0  0  0  0  0  0  0  0
   -4.2868  -14.8500    0.0000 O   0  0  0  0  0  0  0  0  0  0  0  0
   -4.2868  -14.0250    0.0000 C   0  0  0  0  0  0  0  0  0  0  0  0
   -4.7402  -13.3357    0.0000 H   0  0  0  0  0  0  0  0  0  0  0  0
   -5.1104  -13.9770    0.0000 H   0  0  0  0  0  0  0  0  0  0  0  0
   -3.5724  -13.6125    0.0000 C   0  0  0  0  0  0  0  0  0  0  0  0
   -3.2021  -12.8753    0.0000 H   0  0  0  0  0  0  0  0  0  0  0  0
   -3.9426  -12.8753    0.0000 H   0  0  0  0  0  0  0  0  0  0  0  0
   -2.1434  -12.7875    0.0000 C   0  0  0  0  0  0  0  0  0  0  0  0
   -2.8579  -12.3750    0.0000 H   0  0  0  0  0  0  0  0  0  0  0  0
   -1.4289  -12.3750    0.0000 C   0  0  0  0  0  0  0  0  0  0  0  0
   -1.4289  -11.5500    0.0000 H   0  0  0  0  0  0  0  0  0  0  0  0
   -0.7145  -11.1375    0.0000 N   0  0  0  0  0  0  0  0  0  0  0  0
   -0.7145  -10.3125    0.0000 C   0  0  0  0  0  0  0  0  0  0  0  0
   -1.4289   -9.9000    0.0000 H   0  0  0  0  0  0  0  0  0  0  0  0
    0.0000   -9.9000    0.0000 C   0  0  0  0  0  0  0  0  0  0  0  0
    0.0000   -9.0750    0.0000 C   0  0  0  0  0  0  0  0  0  0  0  0
    0.7145   -8.6625    0.0000 O   0  0  0  0  0  0  0  0  0  0  0  0
   -0.7145   -8.6625    0.0000 N   0  0  0  0  0  0  0  0  0  0  0  0
   -0.7145   -7.8375    0.0000 H   0  0  0  0  0  0  0  0  0  0  0  0
   -1.4289   -9.0750    0.0000 H   0  0  0  0  0  0  0  0  0  0  0  0
    2.1434   -7.8375    0.0000 C   0  0  0  0  0  0  0  0  0  0  0  0
    1.7309   -7.1230    0.0000 H   0  0  0  0  0  0  0  0  0  0  0  0
  1  2  1  0  0  0  0
  2  3  1  0  0  0  0
  3  4  4  0  0  0  0
  4  5  1  0  0  0  0
  4  6  4  0  0  0  0
  6  7  1  0  0  0  0
  6  8  4  0  0  0  0
  8  9  1  0  0  0  0
  8 10  4  0  0  0  0
 10 11  1  0  0  0  0
 11 12  1  0  0  0  0
 11 13  1  0  0  0  0
 11 14  1  0  0  0  0
 14 15  1  0  0  0  0
 14 16  1  0  0  0  0
 16 17  4  0  0  0  0
 17 18  4  0  0  0  0
 18 19  1  0  0  0  0
 19 20  1  0  0  0  0
 19 21  1  0  0  0  0
 21 22  4  0  0  0  0
 22 23  1  0  0  0  0
 22 24  4  0  0  0  0
 24 25  1  0  0  0  0
 24 26  4  0  0  0  0
 26 27  1  0  0  0  0
 27 28  1  0  0  0  0
 28 29  1  0  0  0  0
 28 30  1  0  0  0  0
 28 31  1  0  0  0  0
 31 32  1  0  0  0  0
 31 33  1  0  0  0  0
 31 34  1  0  0  0  0
 34 35  1  0  0  0  0
 35 36  1  0  0  0  0
 35 37  1  0  0  0  0
 35 38  1  0  0  0  0
 27 38  1  0  0  0  0
 38 39  1  0  0  0  0
 38 40  1  0  0  0  0
 26 41  4  0  0  0  0
 41 42  1  0  0  0  0
 41 43  4  0  0  0  0
 21 43  4  0  0  0  0
 43 44  1  0  0  0  0
 18 45  4  0  0  0  0
 45 46  4  0  0  0  0
 46 47  1  0  0  0  0
 46 48  4  0  0  0  0
 16 48  4  0  0  0  0
 48 49  1  0  0  0  0
 49 50  2  0  0  0  0
 49 51  1  0  0  0  0
 51 52  1  0  0  0  0
 51 53  1  0  0  0  0
 10 54  4  0  0  0  0
  3 54  4  0  0  0  0
 54 55  1  0  0  0  0
M  END
> <pActivity>
7.721246399047171

$$$$
CHEMBL471559
  Mrv2316 04152410472D          

 54 57  0  0  0  0            999 V2000
    1.4289   -1.6500    0.0000 H   0  0  0  0  0  0  0  0  0  0  0  0
    1.4289   -2.4750    0.0000 C   0  0  0  0  0  0  0  0  0  0  0  0
    2.1434   -2.8875    0.0000 N   0  0  0  0  0  0  0  0  0  0  0  0
    2.1434   -3.7125    0.0000 C   0  0  0  0  0  0  0  0  0  0  0  0
    2.8579   -4.1250    0.0000 N   0  0  0  0  0  0  0  0  0  0  0  0
    2.8579   -4.9500    0.0000 H   0  0  0  0  0  0  0  0  0  0  0  0
    3.5724   -3.7125    0.0000 C   0  0  0  0  0  0  0  0  0  0  0  0
    3.5724   -2.8875    0.0000 C   0  0  0  0  0  0  0  0  0  0  0  0
    2.8579   -2.4750    0.0000 H   0  0  0  0  0  0  0  0  0  0  0  0
    4.2868   -2.4750    0.0000 C   0  0  0  0  0  0  0  0  0  0  0  0
    4.2868   -1.6500    0.0000 H   0  0  0  0  0  0  0  0  0  0  0  0
    5.0013   -2.8875    0.0000 C   0  0  0  0  0  0  0  0  0  0  0  0
    5.7158   -2.4750    0.0000 N   0  0  0  0  0  0  0  0  0  0  0  0
    5.7158   -1.6500    0.0000 C   0  0  0  0  0  0  0  0  0  0  0  0
    5.2624   -0.9607    0.0000 H   0  0  0  0  0  0  0  0  0  0  0  0
    4.8922   -1.6020    0.0000 H   0  0  0  0  0  0  0  0  0  0  0  0
    6.4302   -1.2375    0.0000 C   0  0  0  0  0  0  0  0  0  0  0  0
    6.8005   -0.5003    0.0000 H   0  0  0  0  0  0  0  0  0  0  0  0
    6.0600   -0.5003    0.0000 H   0  0  0  0  0  0  0  0  0  0  0  0
    7.1447   -1.6500    0.0000 O   0  0  0  0  0  0  0  0  0  0  0  0
    7.1447   -2.4750    0.0000 C   0  0  0  0  0  0  0  0  0  0  0  0
    7.5981   -3.1643    0.0000 H   0  0  0  0  0  0  0  0  0  0  0  0
    7.9683   -2.5230    0.0000 H   0  0  0  0  0  0  0  0  0  0  0  0
    6.4302   -2.8875    0.0000 C   0  0  0  0  0  0  0  0  0  0  0  0
    6.0600   -3.6247    0.0000 H   0  0  0  0  0  0  0  0  0  0  0  0
    6.8005   -3.6247    0.0000 H   0  0  0  0  0  0  0  0  0  0  0  0
    5.0013   -3.7125    0.0000 C   0  0  0  0  0  0  0  0  0  0  0  0
    5.7158   -4.1250    0.0000 H   0  0  0  0  0  0  0  0  0  0  0  0
    4.2868   -4.1250    0.0000 C   0  0  0  0  0  0  0  0  0  0  0  0
    4.2868   -4.9500    0.0000 H   0  0  0  0  0  0  0  0  0  0  0  0
    1.4289   -4.1250    0.0000 N   0  0  0  0  0  0  0  0  0  0  0  0
    0.7145   -3.7125    0.0000 C   0  0  0  0  0  0  0  0  0  0  0  0
    0.0000   -4.1250    0.0000 N   0  0  0  0  0  0  0  0  0  0  0  0
   -0.7145   -3.7125    0.0000 H   0  0  0  0  0  0  0  0  0  0  0  0
    0.0000   -4.9500    0.0000 C   0  0  0  0  0  0  0  0  0  0  0  0
    0.4533   -5.6393    0.0000 H   0  0  0  0  0  0  0  0  0  0  0  0
    0.8236   -4.9980    0.0000 H   0  0  0  0  0  0  0  0  0  0  0  0
   -0.7145   -5.3625    0.0000 C   0  0  0  0  0  0  0  0  0  0  0  0
   -0.7145   -6.1875    0.0000 C   0  0  0  0  0  0  0  0  0  0  0  0
   -0.0000   -6.6000    0.0000 H   0  0  0  0  0  0  0  0  0  0  0  0
   -1.4289   -6.6000    0.0000 C   0  0  0  0  0  0  0  0  0  0  0  0
   -1.4289   -7.4250    0.0000 H   0  0  0  0  0  0  0  0  0  0  0  0
   -2.1434   -6.1875    0.0000 C   0  0  0  0  0  0  0  0  0  0  0  0
   -2.8579   -6.6000    0.0000 H   0  0  0  0  0  0  0  0  0  0  0  0
   -2.1434   -5.3625    0.0000 C   0  0  0  0  0  0  0  0  0  0  0  0
   -2.8579   -4.9500    0.0000 Cl  0  0  0  0  0  0  0  0  0  0  0  0
   -1.4289   -4.9500    0.0000 C   0  0  0  0  0  0  0  0  0  0  0  0
   -1.4289   -4.1250    0.0000 H   0  0  0  0  0  0  0  0  0  0  0  0
    0.7145   -2.8875    0.0000 C   0  0  0  0  0  0  0  0  0  0  0  0
    0.0000   -2.4750    0.0000 C   0  0  0  0  0  0  0  0  0  0  0  0
    0.0000   -1.6500    0.0000 O   0  0  0  0  0  0  0  0  0  0  0  0
   -0.7145   -2.8875    0.0000 N   0  0  0  0  0  0  0  0  0  0  0  0
   -1.1678   -2.1982    0.0000 H   0  0  0  0  0  0  0  0  0  0  0  0
   -1.5381   -2.8395    0.0000 H   0  0  0  0  0  0  0  0  0  0  0  0
  1  2  1  0  0  0  0
  2  3  4  0  0  0  0
  3  4  4  0  0  0  0
  4  5  1  0  0  0  0
  5  6  1  0  0  0  0
  5  7  1  0  0  0  0
  7  8  4  0  0  0  0
  8  9  1  0  0  0  0
  8 10  4  0  0  0  0
 10 11  1  0  0  0  0
 10 12  4  0  0  0  0
 12 13  1  0  0  0  0
 13 14  1  0  0  0  0
 14 15  1  0  0  0  0
 14 16  1  0  0  0  0
 14 17  1  0  0  0  0
 17 18  1  0  0  0  0
 17 19  1  0  0  0  0
 17 20  1  0  0  0  0
 20 21  1  0  0  0  0
 21 22  1  0  0  0  0
 21 23  1  0  0  0  0
 21 24  1  0  0  0  0
 13 24  1  0  0  0  0
 24 25  1  0  0  0  0
 24 26  1  0  0  0  0
 12 27  4  0  0  0  0
 27 28  1  0  0  0  0
 27 29  4  0  0  0  0
  7 29  4  0  0  0  0
 29 30  1  0  0  0  0
  4 31  4  0  0  0  0
 31 32  4  0  0  0  0
 32 33  1  0  0  0  0
 33 34  1  0  0  0  0
 33 35  1  0  0  0  0
 35 36  1  0  0  0  0
 35 37  1  0  0  0  0
 35 38  1  0  0  0  0
 38 39  4  0  0  0  0
 39 40  1  0  0  0  0
 39 41  4  0  0  0  0
 41 42  1  0  0  0  0
 41 43  4  0  0  0  0
 43 44  1  0  0  0  0
 43 45  4  0  0  0  0
 45 46  1  0  0  0  0
 45 47  4  0  0  0  0
 38 47  4  0  0  0  0
 47 48  1  0  0  0  0
 32 49  4  0  0  0  0
  2 49  4  0  0  0  0
 49 50  1  0  0  0  0
 50 51  2  0  0  0  0
 50 52  1  0  0  0  0
 52 53  1  0  0  0  0
 52 54  1  0  0  0  0
M  END
> <pActivity>
7.443697499232712

$$$$
CHEMBL512894
  Mrv2316 04152410472D          

 60 63  0  0  0  0            999 V2000
    1.4289   -1.6500    0.0000 H   0  0  0  0  0  0  0  0  0  0  0  0
    1.4289   -2.4750    0.0000 C   0  0  0  0  0  0  0  0  0  0  0  0
    2.1434   -2.8875    0.0000 N   0  0  0  0  0  0  0  0  0  0  0  0
    2.1434   -3.7125    0.0000 C   0  0  0  0  0  0  0  0  0  0  0  0
    2.8579   -4.1250    0.0000 N   0  0  0  0  0  0  0  0  0  0  0  0
    2.8579   -4.9500    0.0000 H   0  0  0  0  0  0  0  0  0  0  0  0
    3.5724   -3.7125    0.0000 C   0  0  0  0  0  0  0  0  0  0  0  0
    3.5724   -2.8875    0.0000 C   0  0  0  0  0  0  0  0  0  0  0  0
    2.8579   -2.4750    0.0000 H   0  0  0  0  0  0  0  0  0  0  0  0
    4.2868   -2.4750    0.0000 C   0  0  0  0  0  0  0  0  0  0  0  0
    4.2868   -1.6500    0.0000 H   0  0  0  0  0  0  0  0  0  0  0  0
    5.0013   -2.8875    0.0000 C   0  0  0  0  0  0  0  0  0  0  0  0
    5.7158   -2.4750    0.0000 N   0  0  0  0  0  0  0  0  0  0  0  0
    5.7158   -1.6500    0.0000 C   0  0  0  0  0  0  0  0  0  0  0  0
    5.2624   -0.9607    0.0000 H   0  0  0  0  0  0  0  0  0  0  0  0
    4.8922   -1.6020    0.0000 H   0  0  0  0  0  0  0  0  0  0  0  0
    6.4302   -1.2375    0.0000 C   0  0  0  0  0  0  0  0  0  0  0  0
    6.8005   -0.5003    0.0000 H   0  0  0  0  0  0  0  0  0  0  0  0
    6.0600   -0.5003    0.0000 H   0  0  0  0  0  0  0  0  0  0  0  0
    7.1447   -1.6500    0.0000 O   0  0  0  0  0  0  0  0  0  0  0  0
    7.1447   -2.4750    0.0000 C   0  0  0  0  0  0  0  0  0  0  0  0
    7.5981   -3.1643    0.0000 H   0  0  0  0  0  0  0  0  0  0  0  0
    7.9683   -2.5230    0.0000 H   0  0  0  0  0  0  0  0  0  0  0  0
    6.4302   -2.8875    0.0000 C   0  0  0  0  0  0  0  0  0  0  0  0
    6.0600   -3.6247    0.0000 H   0  0  0  0  0  0  0  0  0  0  0  0
    6.8005   -3.6247    0.0000 H   0  0  0  0  0  0  0  0  0  0  0  0
    5.0013   -3.7125    0.0000 C   0  0  0  0  0  0  0  0  0  0  0  0
    5.7158   -4.1250    0.0000 H   0  0  0  0  0  0  0  0  0  0  0  0
    4.2868   -4.1250    0.0000 C   0  0  0  0  0  0  0  0  0  0  0  0
    4.2868   -4.9500    0.0000 H   0  0  0  0  0  0  0  0  0  0  0  0
    1.4289   -4.1250    0.0000 N   0  0  0  0  0  0  0  0  0  0  0  0
    0.7145   -3.7125    0.0000 C   0  0  0  0  0  0  0  0  0  0  0  0
    0.0000   -4.1250    0.0000 N   0  0  0  0  0  0  0  0  0  0  0  0
   -0.2135   -3.3281    0.0000 H   0  0  0  0  0  0  0  0  0  0  0  0
    0.0000   -4.9500    0.0000 C   0  0  0  0  0  0  0  0  0  0  0  0
    0.4533   -5.6393    0.0000 H   0  0  0  0  0  0  0  0  0  0  0  0
    0.8236   -4.9980    0.0000 H   0  0  0  0  0  0  0  0  0  0  0  0
   -0.7145   -5.3625    0.0000 C   0  0  0  0  0  0  0  0  0  0  0  0
   -0.7145   -6.1875    0.0000 C   0  0  0  0  0  0  0  0  0  0  0  0
   -0.0000   -6.6000    0.0000 H   0  0  0  0  0  0  0  0  0  0  0  0
   -1.4289   -6.6000    0.0000 C   0  0  0  0  0  0  0  0  0  0  0  0
   -1.4289   -7.4250    0.0000 H   0  0  0  0  0  0  0  0  0  0  0  0
   -2.1434   -6.1875    0.0000 C   0  0  0  0  0  0  0  0  0  0  0  0
   -2.8579   -6.6000    0.0000 H   0  0  0  0  0  0  0  0  0  0  0  0
   -2.1434   -5.3625    0.0000 C   0  0  0  0  0  0  0  0  0  0  0  0
   -2.8579   -4.9500    0.0000 H   0  0  0  0  0  0  0  0  0  0  0  0
   -1.4289   -4.9500    0.0000 C   0  0  0  0  0  0  0  0  0  0  0  0
   -1.4289   -4.1250    0.0000 S   0  0  0  0  0  0  0  0  0  0  0  0
   -1.4289   -3.3000    0.0000 O   0  0  0  0  0  0  0  0  0  0  0  0
   -0.6039   -4.1250    0.0000 O   0  0  0  0  0  0  0  0  0  0  0  0
   -2.2539   -4.1250    0.0000 C   0  0  0  0  0  0  0  0  0  0  0  0
   -2.2539   -3.3000    0.0000 H   0  0  0  0  0  0  0  0  0  0  0  0
   -3.0789   -4.1250    0.0000 H   0  0  0  0  0  0  0  0  0  0  0  0
   -2.2539   -4.9500    0.0000 H   0  0  0  0  0  0  0  0  0  0  0  0
    0.7145   -2.8875    0.0000 C   0  0  0  0  0  0  0  0  0  0  0  0
    0.0000   -2.4750    0.0000 C   0  0  0  0  0  0  0  0  0  0  0  0
    0.0000   -1.6500    0.0000 O   0  0  0  0  0  0  0  0  0  0  0  0
   -0.7145   -2.8875    0.0000 N   0  0  0  0  0  0  0  0  0  0  0  0
   -0.8577   -2.0750    0.0000 H   0  0  0  0  0  0  0  0  0  0  0  0
   -1.3465   -2.3572    0.0000 H   0  0  0  0  0  0  0  0  0  0  0  0
  1  2  1  0  0  0  0
  2  3  4  0  0  0  0
  3  4  4  0  0  0  0
  4  5  1  0  0  0  0
  5  6  1  0  0  0  0
  5  7  1  0  0  0  0
  7  8  4  0  0  0  0
  8  9  1  0  0  0  0
  8 10  4  0  0  0  0
 10 11  1  0  0  0  0
 10 12  4  0  0  0  0
 12 13  1  0  0  0  0
 13 14  1  0  0  0  0
 14 15  1  0  0  0  0
 14 16  1  0  0  0  0
 14 17  1  0  0  0  0
 17 18  1  0  0  0  0
 17 19  1  0  0  0  0
 17 20  1  0  0  0  0
 20 21  1  0  0  0  0
 21 22  1  0  0  0  0
 21 23  1  0  0  0  0
 21 24  1  0  0  0  0
 13 24  1  0  0  0  0
 24 25  1  0  0  0  0
 24 26  1  0  0  0  0
 12 27  4  0  0  0  0
 27 28  1  0  0  0  0
 27 29  4  0  0  0  0
  7 29  4  0  0  0  0
 29 30  1  0  0  0  0
  4 31  4  0  0  0  0
 31 32  4  0  0  0  0
 32 33  1  0  0  0  0
 33 34  1  0  0  0  0
 33 35  1  0  0  0  0
 35 36  1  0  0  0  0
 35 37  1  0  0  0  0
 35 38  1  0  0  0  0
 38 39  4  0  0  0  0
 39 40  1  0  0  0  0
 39 41  4  0  0  0  0
 41 42  1  0  0  0  0
 41 43  4  0  0  0  0
 43 44  1  0  0  0  0
 43 45  4  0  0  0  0
 45 46  1  0  0  0  0
 45 47  4  0  0  0  0
 38 47  4  0  0  0  0
 47 48  1  0  0  0  0
 48 49  2  0  0  0  0
 48 50  2  0  0  0  0
 48 51  1  0  0  0  0
 51 52  1  0  0  0  0
 51 53  1  0  0  0  0
 51 54  1  0  0  0  0
 32 55  4  0  0  0  0
  2 55  4  0  0  0  0
 55 56  1  0  0  0  0
 56 57  2  0  0  0  0
 56 58  1  0  0  0  0
 58 59  1  0  0  0  0
 58 60  1  0  0  0  0
M  END
> <pActivity>
5.698970004336018

$$$$
CHEMBL486643
  Mrv2316 04152410472D          

 58 61  0  0  0  0            999 V2000
    1.4289   -1.6500    0.0000 H   0  0  0  0  0  0  0  0  0  0  0  0
    1.4289   -2.4750    0.0000 C   0  0  0  0  0  0  0  0  0  0  0  0
    2.1434   -2.8875    0.0000 N   0  0  0  0  0  0  0  0  0  0  0  0
    2.1434   -3.7125    0.0000 C   0  0  0  0  0  0  0  0  0  0  0  0
    2.8579   -4.1250    0.0000 N   0  0  0  0  0  0  0  0  0  0  0  0
    2.8579   -4.9500    0.0000 H   0  0  0  0  0  0  0  0  0  0  0  0
    3.5724   -3.7125    0.0000 C   0  0  0  0  0  0  0  0  0  0  0  0
    3.5724   -2.8875    0.0000 C   0  0  0  0  0  0  0  0  0  0  0  0
    2.8579   -2.4750    0.0000 H   0  0  0  0  0  0  0  0  0  0  0  0
    4.2868   -2.4750    0.0000 C   0  0  0  0  0  0  0  0  0  0  0  0
    4.2868   -1.6500    0.0000 H   0  0  0  0  0  0  0  0  0  0  0  0
    5.0013   -2.8875    0.0000 C   0  0  0  0  0  0  0  0  0  0  0  0
    5.7158   -2.4750    0.0000 N   0  0  0  0  0  0  0  0  0  0  0  0
    5.7158   -1.6500    0.0000 C   0  0  0  0  0  0  0  0  0  0  0  0
    5.2624   -0.9607    0.0000 H   0  0  0  0  0  0  0  0  0  0  0  0
    4.8922   -1.6020    0.0000 H   0  0  0  0  0  0  0  0  0  0  0  0
    6.4302   -1.2375    0.0000 C   0  0  0  0  0  0  0  0  0  0  0  0
    6.8005   -0.5003    0.0000 H   0  0  0  0  0  0  0  0  0  0  0  0
    6.0600   -0.5003    0.0000 H   0  0  0  0  0  0  0  0  0  0  0  0
    7.1447   -1.6500    0.0000 O   0  0  0  0  0  0  0  0  0  0  0  0
    7.1447   -2.4750    0.0000 C   0  0  0  0  0  0  0  0  0  0  0  0
    7.5981   -3.1643    0.0000 H   0  0  0  0  0  0  0  0  0  0  0  0
    7.9683   -2.5230    0.0000 H   0  0  0  0  0  0  0  0  0  0  0  0
    6.4302   -2.8875    0.0000 C   0  0  0  0  0  0  0  0  0  0  0  0
    6.0600   -3.6247    0.0000 H   0  0  0  0  0  0  0  0  0  0  0  0
    6.8005   -3.6247    0.0000 H   0  0  0  0  0  0  0  0  0  0  0  0
    5.0013   -3.7125    0.0000 C   0  0  0  0  0  0  0  0  0  0  0  0
    5.7158   -4.1250    0.0000 H   0  0  0  0  0  0  0  0  0  0  0  0
    4.2868   -4.1250    0.0000 C   0  0  0  0  0  0  0  0  0  0  0  0
    4.2868   -4.9500    0.0000 H   0  0  0  0  0  0  0  0  0  0  0  0
    1.4289   -4.1250    0.0000 N   0  0  0  0  0  0  0  0  0  0  0  0
    0.7145   -3.7125    0.0000 C   0  0  0  0  0  0  0  0  0  0  0  0
    0.0000   -4.1250    0.0000 N   0  0  0  0  0  0  0  0  0  0  0  0
    0.0000   -3.3000    0.0000 H   0  0  0  0  0  0  0  0  0  0  0  0
    0.0000   -4.9500    0.0000 C   0  0  0  0  0  0  0  0  0  0  0  0
    0.4533   -5.6393    0.0000 H   0  0  0  0  0  0  0  0  0  0  0  0
    0.8236   -4.9980    0.0000 H   0  0  0  0  0  0  0  0  0  0  0  0
   -0.7145   -5.3625    0.0000 C   0  0  0  0  0  0  0  0  0  0  0  0
   -0.7145   -6.1875    0.0000 C   0  0  0  0  0  0  0  0  0  0  0  0
   -0.0000   -6.6000    0.0000 H   0  0  0  0  0  0  0  0  0  0  0  0
   -1.4289   -6.6000    0.0000 C   0  0  0  0  0  0  0  0  0  0  0  0
   -1.4289   -7.4250    0.0000 H   0  0  0  0  0  0  0  0  0  0  0  0
   -2.1434   -6.1875    0.0000 C   0  0  0  0  0  0  0  0  0  0  0  0
   -2.8579   -6.6000    0.0000 H   0  0  0  0  0  0  0  0  0  0  0  0
   -2.1434   -5.3625    0.0000 C   0  0  0  0  0  0  0  0  0  0  0  0
   -2.8579   -4.9500    0.0000 H   0  0  0  0  0  0  0  0  0  0  0  0
   -1.4289   -4.9500    0.0000 C   0  0  0  0  0  0  0  0  0  0  0  0
   -1.4289   -4.1250    0.0000 S   0  0  0  0  0  0  0  0  0  0  0  0
   -0.7145   -3.7125    0.0000 C   0  0  0  0  0  0  0  0  0  0  0  0
   -0.9966   -4.4877    0.0000 H   0  0  0  0  0  0  0  0  0  0  0  0
   -0.4323   -4.4877    0.0000 H   0  0  0  0  0  0  0  0  0  0  0  0
   -1.4289   -3.3000    0.0000 H   0  0  0  0  0  0  0  0  0  0  0  0
    0.7145   -2.8875    0.0000 C   0  0  0  0  0  0  0  0  0  0  0  0
    0.0000   -2.4750    0.0000 C   0  0  0  0  0  0  0  0  0  0  0  0
    0.0000   -1.6500    0.0000 O   0  0  0  0  0  0  0  0  0  0  0  0
   -0.7145   -2.8875    0.0000 N   0  0  0  0  0  0  0  0  0  0  0  0
   -0.8577   -2.0750    0.0000 H   0  0  0  0  0  0  0  0  0  0  0  0
   -1.3465   -2.3572    0.0000 H   0  0  0  0  0  0  0  0  0  0  0  0
  1  2  1  0  0  0  0
  2  3  4  0  0  0  0
  3  4  4  0  0  0  0
  4  5  1  0  0  0  0
  5  6  1  0  0  0  0
  5  7  1  0  0  0  0
  7  8  4  0  0  0  0
  8  9  1  0  0  0  0
  8 10  4  0  0  0  0
 10 11  1  0  0  0  0
 10 12  4  0  0  0  0
 12 13  1  0  0  0  0
 13 14  1  0  0  0  0
 14 15  1  0  0  0  0
 14 16  1  0  0  0  0
 14 17  1  0  0  0  0
 17 18  1  0  0  0  0
 17 19  1  0  0  0  0
 17 20  1  0  0  0  0
 20 21  1  0  0  0  0
 21 22  1  0  0  0  0
 21 23  1  0  0  0  0
 21 24  1  0  0  0  0
 13 24  1  0  0  0  0
 24 25  1  0  0  0  0
 24 26  1  0  0  0  0
 12 27  4  0  0  0  0
 27 28  1  0  0  0  0
 27 29  4  0  0  0  0
  7 29  4  0  0  0  0
 29 30  1  0  0  0  0
  4 31  4  0  0  0  0
 31 32  4  0  0  0  0
 32 33  1  0  0  0  0
 33 34  1  0  0  0  0
 33 35  1  0  0  0  0
 35 36  1  0  0  0  0
 35 37  1  0  0  0  0
 35 38  1  0  0  0  0
 38 39  4  0  0  0  0
 39 40  1  0  0  0  0
 39 41  4  0  0  0  0
 41 42  1  0  0  0  0
 41 43  4  0  0  0  0
 43 44  1  0  0  0  0
 43 45  4  0  0  0  0
 45 46  1  0  0  0  0
 45 47  4  0  0  0  0
 38 47  4  0  0  0  0
 47 48  1  0  0  0  0
 48 49  1  0  0  0  0
 49 50  1  0  0  0  0
 49 51  1  0  0  0  0
 49 52  1  0  0  0  0
 32 53  4  0  0  0  0
  2 53  4  0  0  0  0
 53 54  1  0  0  0  0
 54 55  2  0  0  0  0
 54 56  1  0  0  0  0
 56 57  1  0  0  0  0
 56 58  1  0  0  0  0
M  END
> <pActivity>
7.638272163982406

$$$$
CHEMBL228192
  Mrv2316 04152410472D          

 48 50  0  0  0  0            999 V2000
    4.2868   -4.9500    0.0000 H   0  0  0  0  0  0  0  0  0  0  0  0
    3.5724   -5.3625    0.0000 O   0  0  0  0  0  0  0  0  0  0  0  0
    3.5724   -6.1875    0.0000 C   0  0  0  0  0  0  0  0  0  0  0  0
    4.2868   -6.6000    0.0000 C   0  0  0  0  0  0  0  0  0  0  0  0
    5.0013   -6.1875    0.0000 H   0  0  0  0  0  0  0  0  0  0  0  0
    4.2868   -7.4250    0.0000 C   0  0  0  0  0  0  0  0  0  0  0  0
    5.0013   -7.8375    0.0000 H   0  0  0  0  0  0  0  0  0  0  0  0
    3.5724   -7.8375    0.0000 C   0  0  0  0  0  0  0  0  0  0  0  0
    3.5724   -8.6625    0.0000 C   0  0  0  0  0  0  0  0  0  0  0  0
    2.7488   -8.7105    0.0000 H   0  0  0  0  0  0  0  0  0  0  0  0
    3.1190   -9.3518    0.0000 H   0  0  0  0  0  0  0  0  0  0  0  0
    4.2868   -9.0750    0.0000 C   0  0  0  0  0  0  0  0  0  0  0  0
    5.1104   -9.0270    0.0000 H   0  0  0  0  0  0  0  0  0  0  0  0
    4.7402   -8.3857    0.0000 H   0  0  0  0  0  0  0  0  0  0  0  0
    4.2868   -9.9000    0.0000 N   0  0  0  0  0  0  0  0  0  0  0  0
    3.5724  -10.3125    0.0000 H   0  0  0  0  0  0  0  0  0  0  0  0
    5.0013  -10.3125    0.0000 C   0  0  0  0  0  0  0  0  0  0  0  0
    5.7158   -9.9000    0.0000 N   0  0  0  0  0  0  0  0  0  0  0  0
    6.4302  -10.3125    0.0000 C   0  0  0  0  0  0  0  0  0  0  0  0
    7.1447   -9.9000    0.0000 H   0  0  0  0  0  0  0  0  0  0  0  0
    6.4302  -11.1375    0.0000 C   0  0  0  0  0  0  0  0  0  0  0  0
    7.1447  -11.5500    0.0000 C   0  0  0  0  0  0  0  0  0  0  0  0
    7.1447  -12.3750    0.0000 O   0  0  0  0  0  0  0  0  0  0  0  0
    7.8592  -11.1375    0.0000 N   0  0  0  0  0  0  0  0  0  0  0  0
    8.5737  -11.5500    0.0000 H   0  0  0  0  0  0  0  0  0  0  0  0
    7.8592  -10.3125    0.0000 H   0  0  0  0  0  0  0  0  0  0  0  0
    5.7158  -11.5500    0.0000 C   0  0  0  0  0  0  0  0  0  0  0  0
    5.7158  -12.3750    0.0000 N   0  0  0  0  0  0  0  0  0  0  0  0
    5.0013  -12.7875    0.0000 H   0  0  0  0  0  0  0  0  0  0  0  0
    6.4302  -12.7875    0.0000 C   0  0  0  0  0  0  0  0  0  0  0  0
    6.4302  -11.9625    0.0000 H   0  0  0  0  0  0  0  0  0  0  0  0
    7.1447  -13.2000    0.0000 H   0  0  0  0  0  0  0  0  0  0  0  0
    6.4302  -13.6125    0.0000 C   0  0  0  0  0  0  0  0  0  0  0  0
    7.1447  -14.0250    0.0000 C   0  0  0  0  0  0  0  0  0  0  0  0
    7.9697  -14.0250    0.0000 H   0  0  0  0  0  0  0  0  0  0  0  0
    7.1447  -14.8500    0.0000 C   0  0  0  0  0  0  0  0  0  0  0  0
    7.8592  -15.2625    0.0000 H   0  0  0  0  0  0  0  0  0  0  0  0
    6.4302  -15.2625    0.0000 C   0  0  0  0  0  0  0  0  0  0  0  0
    6.4302  -16.0875    0.0000 H   0  0  0  0  0  0  0  0  0  0  0  0
    5.7158  -14.8500    0.0000 C   0  0  0  0  0  0  0  0  0  0  0  0
    5.0013  -15.2625    0.0000 H   0  0  0  0  0  0  0  0  0  0  0  0
    5.7158  -14.0250    0.0000 C   0  0  0  0  0  0  0  0  0  0  0  0
    5.0013  -13.6125    0.0000 H   0  0  0  0  0  0  0  0  0  0  0  0
    5.0013  -11.1375    0.0000 N   0  0  0  0  0  0  0  0  0  0  0  0
    2.8579   -7.4250    0.0000 C   0  0  0  0  0  0  0  0  0  0  0  0
    2.1434   -7.8375    0.0000 H   0  0  0  0  0  0  0  0  0  0  0  0
    2.8579   -6.6000    0.0000 C   0  0  0  0  0  0  0  0  0  0  0  0
    2.1434   -6.1875    0.0000 Cl  0  0  0  0  0  0  0  0  0  0  0  0
  1  2  1  0  0  0  0
  2  3  1  0  0  0  0
  3  4  4  0  0  0  0
  4  5  1  0  0  0  0
  4  6  4  0  0  0  0
  6  7  1  0  0  0  0
  6  8  4  0  0  0  0
  8  9  1  0  0  0  0
  9 10  1  0  0  0  0
  9 11  1  0  0  0  0
  9 12  1  0  0  0  0
 12 13  1  0  0  0  0
 12 14  1  0  0  0  0
 12 15  1  0  0  0  0
 15 16  1  0  0  0  0
 15 17  1  0  0  0  0
 17 18  4  0  0  0  0
 18 19  4  0  0  0  0
 19 20  1  0  0  0  0
 19 21  4  0  0  0  0
 21 22  1  0  0  0  0
 22 23  2  0  0  0  0
 22 24  1  0  0  0  0
 24 25  1  0  0  0  0
 24 26  1  0  0  0  0
 21 27  4  0  0  0  0
 27 28  1  0  0  0  0
 28 29  1  0  0  0  0
 28 30  1  0  0  0  0
 30 31  1  0  0  0  0
 30 32  1  0  0  0  0
 30 33  1  0  0  0  0
 33 34  4  0  0  0  0
 34 35  1  0  0  0  0
 34 36  4  0  0  0  0
 36 37  1  0  0  0  0
 36 38  4  0  0  0  0
 38 39  1  0  0  0  0
 38 40  4  0  0  0  0
 40 41  1  0  0  0  0
 40 42  4  0  0  0  0
 33 42  4  0  0  0  0
 42 43  1  0  0  0  0
 27 44  4  0  0  0  0
 17 44  4  0  0  0  0
  8 45  4  0  0  0  0
 45 46  1  0  0  0  0
 45 47  4  0  0  0  0
  3 47  4  0  0  0  0
 47 48  1  0  0  0  0
M  END
> <pActivity>
7.67778070526608

$$$$
CHEMBL520539
  Mrv2316 04152410472D          

 61 64  0  0  0  0            999 V2000
    0.0000   -1.6500    0.0000 H   0  0  0  0  0  0  0  0  0  0  0  0
    0.0000   -2.4750    0.0000 C   0  0  0  0  0  0  0  0  0  0  0  0
    0.7145   -2.8875    0.0000 N   0  0  0  0  0  0  0  0  0  0  0  0
    0.7145   -3.7125    0.0000 C   0  0  0  0  0  0  0  0  0  0  0  0
    1.4289   -4.1250    0.0000 N   0  0  0  0  0  0  0  0  0  0  0  0
    1.4289   -4.9500    0.0000 H   0  0  0  0  0  0  0  0  0  0  0  0
    2.1434   -3.7125    0.0000 C   0  0  0  0  0  0  0  0  0  0  0  0
    2.1434   -2.8875    0.0000 C   0  0  0  0  0  0  0  0  0  0  0  0
    1.4289   -2.4750    0.0000 H   0  0  0  0  0  0  0  0  0  0  0  0
    2.8579   -2.4750    0.0000 C   0  0  0  0  0  0  0  0  0  0  0  0
    2.8579   -1.6500    0.0000 H   0  0  0  0  0  0  0  0  0  0  0  0
    3.5724   -2.8875    0.0000 C   0  0  0  0  0  0  0  0  0  0  0  0
    4.2868   -2.4750    0.0000 N   0  0  0  0  0  0  0  0  0  0  0  0
    4.2868   -1.6500    0.0000 C   0  0  0  0  0  0  0  0  0  0  0  0
    3.8335   -0.9607    0.0000 H   0  0  0  0  0  0  0  0  0  0  0  0
    3.4632   -1.6020    0.0000 H   0  0  0  0  0  0  0  0  0  0  0  0
    5.0013   -1.2375    0.0000 C   0  0  0  0  0  0  0  0  0  0  0  0
    5.3716   -0.5003    0.0000 H   0  0  0  0  0  0  0  0  0  0  0  0
    4.6310   -0.5003    0.0000 H   0  0  0  0  0  0  0  0  0  0  0  0
    5.7158   -1.6500    0.0000 O   0  0  0  0  0  0  0  0  0  0  0  0
    5.7158   -2.4750    0.0000 C   0  0  0  0  0  0  0  0  0  0  0  0
    6.1691   -3.1643    0.0000 H   0  0  0  0  0  0  0  0  0  0  0  0
    6.5394   -2.5230    0.0000 H   0  0  0  0  0  0  0  0  0  0  0  0
    5.0013   -2.8875    0.0000 C   0  0  0  0  0  0  0  0  0  0  0  0
    4.6310   -3.6247    0.0000 H   0  0  0  0  0  0  0  0  0  0  0  0
    5.3716   -3.6247    0.0000 H   0  0  0  0  0  0  0  0  0  0  0  0
    3.5724   -3.7125    0.0000 C   0  0  0  0  0  0  0  0  0  0  0  0
    4.2868   -4.1250    0.0000 H   0  0  0  0  0  0  0  0  0  0  0  0
    2.8579   -4.1250    0.0000 C   0  0  0  0  0  0  0  0  0  0  0  0
    2.8579   -4.9500    0.0000 H   0  0  0  0  0  0  0  0  0  0  0  0
    0.0000   -4.1250    0.0000 N   0  0  0  0  0  0  0  0  0  0  0  0
   -0.7145   -3.7125    0.0000 C   0  0  0  0  0  0  0  0  0  0  0  0
   -1.4289   -4.1250    0.0000 N   0  0  0  0  0  0  0  0  0  0  0  0
   -1.4289   -4.9500    0.0000 H   0  0  0  0  0  0  0  0  0  0  0  0
   -2.1434   -3.7125    0.0000 C   0  0  0  0  0  0  0  0  0  0  0  0
   -1.4289   -3.3000    0.0000 H   0  0  0  0  0  0  0  0  0  0  0  0
   -2.1434   -4.5375    0.0000 H   0  0  0  0  0  0  0  0  0  0  0  0
   -2.8579   -4.1250    0.0000 C   0  0  0  0  0  0  0  0  0  0  0  0
   -2.8579   -4.9500    0.0000 C   0  0  0  0  0  0  0  0  0  0  0  0
   -2.4454   -5.6645    0.0000 H   0  0  0  0  0  0  0  0  0  0  0  0
   -3.5724   -5.3625    0.0000 C   0  0  0  0  0  0  0  0  0  0  0  0
   -3.5724   -6.1875    0.0000 H   0  0  0  0  0  0  0  0  0  0  0  0
   -4.2868   -4.9500    0.0000 C   0  0  0  0  0  0  0  0  0  0  0  0
   -5.0013   -5.3625    0.0000 H   0  0  0  0  0  0  0  0  0  0  0  0
   -4.2868   -4.1250    0.0000 C   0  0  0  0  0  0  0  0  0  0  0  0
   -5.0013   -3.7125    0.0000 H   0  0  0  0  0  0  0  0  0  0  0  0
   -3.5724   -3.7125    0.0000 C   0  0  0  0  0  0  0  0  0  0  0  0
   -3.5724   -2.8875    0.0000 N   0  0  0  0  0  0  0  0  0  0  0  0
   -2.8579   -2.4750    0.0000 H   0  0  0  0  0  0  0  0  0  0  0  0
   -4.2868   -2.4750    0.0000 C   0  0  0  0  0  0  0  0  0  0  0  0
   -5.0013   -2.8875    0.0000 O   0  0  0  0  0  0  0  0  0  0  0  0
   -4.2868   -1.6500    0.0000 C   0  0  0  0  0  0  0  0  0  0  0  0
   -3.4618   -1.6500    0.0000 H   0  0  0  0  0  0  0  0  0  0  0  0
   -4.2868   -0.8250    0.0000 H   0  0  0  0  0  0  0  0  0  0  0  0
   -5.1118   -1.6500    0.0000 H   0  0  0  0  0  0  0  0  0  0  0  0
   -0.7145   -2.8875    0.0000 C   0  0  0  0  0  0  0  0  0  0  0  0
   -1.4289   -2.4750    0.0000 C   0  0  0  0  0  0  0  0  0  0  0  0
   -1.4289   -1.6500    0.0000 O   0  0  0  0  0  0  0  0  0  0  0  0
   -2.1434   -2.8875    0.0000 N   0  0  0  0  0  0  0  0  0  0  0  0
   -2.8579   -3.3000    0.0000 H   0  0  0  0  0  0  0  0  0  0  0  0
   -2.1434   -2.0625    0.0000 H   0  0  0  0  0  0  0  0  0  0  0  0
  1  2  1  0  0  0  0
  2  3  4  0  0  0  0
  3  4  4  0  0  0  0
  4  5  1  0  0  0  0
  5  6  1  0  0  0  0
  5  7  1  0  0  0  0
  7  8  4  0  0  0  0
  8  9  1  0  0  0  0
  8 10  4  0  0  0  0
 10 11  1  0  0  0  0
 10 12  4  0  0  0  0
 12 13  1  0  0  0  0
 13 14  1  0  0  0  0
 14 15  1  0  0  0  0
 14 16  1  0  0  0  0
 14 17  1  0  0  0  0
 17 18  1  0  0  0  0
 17 19  1  0  0  0  0
 17 20  1  0  0  0  0
 20 21  1  0  0  0  0
 21 22  1  0  0  0  0
 21 23  1  0  0  0  0
 21 24  1  0  0  0  0
 13 24  1  0  0  0  0
 24 25  1  0  0  0  0
 24 26  1  0  0  0  0
 12 27  4  0  0  0  0
 27 28  1  0  0  0  0
 27 29  4  0  0  0  0
  7 29  4  0  0  0  0
 29 30  1  0  0  0  0
  4 31  4  0  0  0  0
 31 32  4  0  0  0  0
 32 33  1  0  0  0  0
 33 34  1  0  0  0  0
 33 35  1  0  0  0  0
 35 36  1  0  0  0  0
 35 37  1  0  0  0  0
 35 38  1  0  0  0  0
 38 39  4  0  0  0  0
 39 40  1  0  0  0  0
 39 41  4  0  0  0  0
 41 42  1  0  0  0  0
 41 43  4  0  0  0  0
 43 44  1  0  0  0  0
 43 45  4  0  0  0  0
 45 46  1  0  0  0  0
 45 47  4  0  0  0  0
 38 47  4  0  0  0  0
 47 48  1  0  0  0  0
 48 49  1  0  0  0  0
 48 50  1  0  0  0  0
 50 51  2  0  0  0  0
 50 52  1  0  0  0  0
 52 53  1  0  0  0  0
 52 54  1  0  0  0  0
 52 55  1  0  0  0  0
 32 56  4  0  0  0  0
  2 56  4  0  0  0  0
 56 57  1  0  0  0  0
 57 58  2  0  0  0  0
 57 59  1  0  0  0  0
 59 60  1  0  0  0  0
 59 61  1  0  0  0  0
M  END
> <pActivity>
5.2839966563652

$$$$
CHEMBL487634
  Mrv2316 04152410472D          

 56 59  0  0  0  0            999 V2000
    1.4289   -1.6500    0.0000 H   0  0  0  0  0  0  0  0  0  0  0  0
    1.4289   -2.4750    0.0000 C   0  0  0  0  0  0  0  0  0  0  0  0
    2.1434   -2.8875    0.0000 N   0  0  0  0  0  0  0  0  0  0  0  0
    2.1434   -3.7125    0.0000 C   0  0  0  0  0  0  0  0  0  0  0  0
    2.8579   -4.1250    0.0000 N   0  0  0  0  0  0  0  0  0  0  0  0
    2.8579   -4.9500    0.0000 H   0  0  0  0  0  0  0  0  0  0  0  0
    3.5724   -3.7125    0.0000 C   0  0  0  0  0  0  0  0  0  0  0  0
    3.5724   -2.8875    0.0000 C   0  0  0  0  0  0  0  0  0  0  0  0
    2.8579   -2.4750    0.0000 H   0  0  0  0  0  0  0  0  0  0  0  0
    4.2868   -2.4750    0.0000 C   0  0  0  0  0  0  0  0  0  0  0  0
    4.2868   -1.6500    0.0000 H   0  0  0  0  0  0  0  0  0  0  0  0
    5.0013   -2.8875    0.0000 C   0  0  0  0  0  0  0  0  0  0  0  0
    5.7158   -2.4750    0.0000 N   0  0  0  0  0  0  0  0  0  0  0  0
    5.7158   -1.6500    0.0000 C   0  0  0  0  0  0  0  0  0  0  0  0
    5.2624   -0.9607    0.0000 H   0  0  0  0  0  0  0  0  0  0  0  0
    4.8922   -1.6020    0.0000 H   0  0  0  0  0  0  0  0  0  0  0  0
    6.4302   -1.2375    0.0000 C   0  0  0  0  0  0  0  0  0  0  0  0
    6.8005   -0.5003    0.0000 H   0  0  0  0  0  0  0  0  0  0  0  0
    6.0600   -0.5003    0.0000 H   0  0  0  0  0  0  0  0  0  0  0  0
    7.1447   -1.6500    0.0000 O   0  0  0  0  0  0  0  0  0  0  0  0
    7.1447   -2.4750    0.0000 C   0  0  0  0  0  0  0  0  0  0  0  0
    7.5981   -3.1643    0.0000 H   0  0  0  0  0  0  0  0  0  0  0  0
    7.9683   -2.5230    0.0000 H   0  0  0  0  0  0  0  0  0  0  0  0
    6.4302   -2.8875    0.0000 C   0  0  0  0  0  0  0  0  0  0  0  0
    6.0600   -3.6247    0.0000 H   0  0  0  0  0  0  0  0  0  0  0  0
    6.8005   -3.6247    0.0000 H   0  0  0  0  0  0  0  0  0  0  0  0
    5.0013   -3.7125    0.0000 C   0  0  0  0  0  0  0  0  0  0  0  0
    5.7158   -4.1250    0.0000 H   0  0  0  0  0  0  0  0  0  0  0  0
    4.2868   -4.1250    0.0000 C   0  0  0  0  0  0  0  0  0  0  0  0
    4.2868   -4.9500    0.0000 H   0  0  0  0  0  0  0  0  0  0  0  0
    1.4289   -4.1250    0.0000 N   0  0  0  0  0  0  0  0  0  0  0  0
    0.7145   -3.7125    0.0000 C   0  0  0  0  0  0  0  0  0  0  0  0
    0.0000   -4.1250    0.0000 N   0  0  0  0  0  0  0  0  0  0  0  0
   -0.7145   -3.7125    0.0000 H   0  0  0  0  0  0  0  0  0  0  0  0
    0.0000   -4.9500    0.0000 C   0  0  0  0  0  0  0  0  0  0  0  0
    0.4533   -5.6393    0.0000 H   0  0  0  0  0  0  0  0  0  0  0  0
    0.8236   -4.9980    0.0000 H   0  0  0  0  0  0  0  0  0  0  0  0
   -0.7145   -5.3625    0.0000 C   0  0  0  0  0  0  0  0  0  0  0  0
   -0.7145   -6.1875    0.0000 C   0  0  0  0  0  0  0  0  0  0  0  0
   -0.0000   -6.6000    0.0000 H   0  0  0  0  0  0  0  0  0  0  0  0
   -1.4289   -6.6000    0.0000 C   0  0  0  0  0  0  0  0  0  0  0  0
   -1.4289   -7.4250    0.0000 H   0  0  0  0  0  0  0  0  0  0  0  0
   -2.1434   -6.1875    0.0000 C   0  0  0  0  0  0  0  0  0  0  0  0
   -2.8579   -6.6000    0.0000 H   0  0  0  0  0  0  0  0  0  0  0  0
   -2.1434   -5.3625    0.0000 C   0  0  0  0  0  0  0  0  0  0  0  0
   -2.8579   -4.9500    0.0000 H   0  0  0  0  0  0  0  0  0  0  0  0
   -1.4289   -4.9500    0.0000 C   0  0  0  0  0  0  0  0  0  0  0  0
   -1.4289   -4.1250    0.0000 N   0  0  0  0  0  0  0  0  0  0  0  0
   -1.8823   -3.4357    0.0000 H   0  0  0  0  0  0  0  0  0  0  0  0
   -2.2525   -4.0770    0.0000 H   0  0  0  0  0  0  0  0  0  0  0  0
    0.7145   -2.8875    0.0000 C   0  0  0  0  0  0  0  0  0  0  0  0
    0.0000   -2.4750    0.0000 C   0  0  0  0  0  0  0  0  0  0  0  0
    0.0000   -1.6500    0.0000 O   0  0  0  0  0  0  0  0  0  0  0  0
   -0.7145   -2.8875    0.0000 N   0  0  0  0  0  0  0  0  0  0  0  0
   -1.1678   -2.1982    0.0000 H   0  0  0  0  0  0  0  0  0  0  0  0
   -1.5381   -2.8395    0.0000 H   0  0  0  0  0  0  0  0  0  0  0  0
  1  2  1  0  0  0  0
  2  3  4  0  0  0  0
  3  4  4  0  0  0  0
  4  5  1  0  0  0  0
  5  6  1  0  0  0  0
  5  7  1  0  0  0  0
  7  8  4  0  0  0  0
  8  9  1  0  0  0  0
  8 10  4  0  0  0  0
 10 11  1  0  0  0  0
 10 12  4  0  0  0  0
 12 13  1  0  0  0  0
 13 14  1  0  0  0  0
 14 15  1  0  0  0  0
 14 16  1  0  0  0  0
 14 17  1  0  0  0  0
 17 18  1  0  0  0  0
 17 19  1  0  0  0  0
 17 20  1  0  0  0  0
 20 21  1  0  0  0  0
 21 22  1  0  0  0  0
 21 23  1  0  0  0  0
 21 24  1  0  0  0  0
 13 24  1  0  0  0  0
 24 25  1  0  0  0  0
 24 26  1  0  0  0  0
 12 27  4  0  0  0  0
 27 28  1  0  0  0  0
 27 29  4  0  0  0  0
  7 29  4  0  0  0  0
 29 30  1  0  0  0  0
  4 31  4  0  0  0  0
 31 32  4  0  0  0  0
 32 33  1  0  0  0  0
 33 34  1  0  0  0  0
 33 35  1  0  0  0  0
 35 36  1  0  0  0  0
 35 37  1  0  0  0  0
 35 38  1  0  0  0  0
 38 39  4  0  0  0  0
 39 40  1  0  0  0  0
 39 41  4  0  0  0  0
 41 42  1  0  0  0  0
 41 43  4  0  0  0  0
 43 44  1  0  0  0  0
 43 45  4  0  0  0  0
 45 46  1  0  0  0  0
 45 47  4  0  0  0  0
 38 47  4  0  0  0  0
 47 48  1  0  0  0  0
 48 49  1  0  0  0  0
 48 50  1  0  0  0  0
 32 51  4  0  0  0  0
  2 51  4  0  0  0  0
 51 52  1  0  0  0  0
 52 53  2  0  0  0  0
 52 54  1  0  0  0  0
 54 55  1  0  0  0  0
 54 56  1  0  0  0  0
M  END
> <pActivity>
6.508638306165727

$$$$
CHEMBL520234
  Mrv2316 04152410472D          

 56 59  0  0  0  0            999 V2000
    1.4289   -1.6500    0.0000 H   0  0  0  0  0  0  0  0  0  0  0  0
    1.4289   -2.4750    0.0000 C   0  0  0  0  0  0  0  0  0  0  0  0
    2.1434   -2.8875    0.0000 N   0  0  0  0  0  0  0  0  0  0  0  0
    2.1434   -3.7125    0.0000 C   0  0  0  0  0  0  0  0  0  0  0  0
    2.8579   -4.1250    0.0000 N   0  0  0  0  0  0  0  0  0  0  0  0
    2.8579   -4.9500    0.0000 H   0  0  0  0  0  0  0  0  0  0  0  0
    3.5724   -3.7125    0.0000 C   0  0  0  0  0  0  0  0  0  0  0  0
    3.5724   -2.8875    0.0000 C   0  0  0  0  0  0  0  0  0  0  0  0
    2.8579   -2.4750    0.0000 H   0  0  0  0  0  0  0  0  0  0  0  0
    4.2868   -2.4750    0.0000 C   0  0  0  0  0  0  0  0  0  0  0  0
    4.2868   -1.6500    0.0000 H   0  0  0  0  0  0  0  0  0  0  0  0
    5.0013   -2.8875    0.0000 C   0  0  0  0  0  0  0  0  0  0  0  0
    5.7158   -2.4750    0.0000 N   0  0  0  0  0  0  0  0  0  0  0  0
    5.7158   -1.6500    0.0000 C   0  0  0  0  0  0  0  0  0  0  0  0
    5.2624   -0.9607    0.0000 H   0  0  0  0  0  0  0  0  0  0  0  0
    4.8922   -1.6020    0.0000 H   0  0  0  0  0  0  0  0  0  0  0  0
    6.4302   -1.2375    0.0000 C   0  0  0  0  0  0  0  0  0  0  0  0
    6.8005   -0.5003    0.0000 H   0  0  0  0  0  0  0  0  0  0  0  0
    6.0600   -0.5003    0.0000 H   0  0  0  0  0  0  0  0  0  0  0  0
    7.1447   -1.6500    0.0000 O   0  0  0  0  0  0  0  0  0  0  0  0
    7.1447   -2.4750    0.0000 C   0  0  0  0  0  0  0  0  0  0  0  0
    7.5981   -3.1643    0.0000 H   0  0  0  0  0  0  0  0  0  0  0  0
    7.9683   -2.5230    0.0000 H   0  0  0  0  0  0  0  0  0  0  0  0
    6.4302   -2.8875    0.0000 C   0  0  0  0  0  0  0  0  0  0  0  0
    6.0600   -3.6247    0.0000 H   0  0  0  0  0  0  0  0  0  0  0  0
    6.8005   -3.6247    0.0000 H   0  0  0  0  0  0  0  0  0  0  0  0
    5.0013   -3.7125    0.0000 C   0  0  0  0  0  0  0  0  0  0  0  0
    5.7158   -4.1250    0.0000 H   0  0  0  0  0  0  0  0  0  0  0  0
    4.2868   -4.1250    0.0000 C   0  0  0  0  0  0  0  0  0  0  0  0
    4.2868   -4.9500    0.0000 H   0  0  0  0  0  0  0  0  0  0  0  0
    1.4289   -4.1250    0.0000 N   0  0  0  0  0  0  0  0  0  0  0  0
    0.7145   -3.7125    0.0000 C   0  0  0  0  0  0  0  0  0  0  0  0
    0.0000   -4.1250    0.0000 N   0  0  0  0  0  0  0  0  0  0  0  0
    0.0000   -3.3000    0.0000 H   0  0  0  0  0  0  0  0  0  0  0  0
    0.0000   -4.9500    0.0000 C   0  0  0  0  0  0  0  0  0  0  0  0
    0.4533   -5.6393    0.0000 H   0  0  0  0  0  0  0  0  0  0  0  0
    0.8236   -4.9980    0.0000 H   0  0  0  0  0  0  0  0  0  0  0  0
   -0.7145   -5.3625    0.0000 C   0  0  0  0  0  0  0  0  0  0  0  0
   -0.7145   -6.1875    0.0000 C   0  0  0  0  0  0  0  0  0  0  0  0
   -0.0000   -6.6000    0.0000 H   0  0  0  0  0  0  0  0  0  0  0  0
   -1.4289   -6.6000    0.0000 C   0  0  0  0  0  0  0  0  0  0  0  0
   -1.4289   -7.4250    0.0000 H   0  0  0  0  0  0  0  0  0  0  0  0
   -2.1434   -6.1875    0.0000 C   0  0  0  0  0  0  0  0  0  0  0  0
   -2.8579   -6.6000    0.0000 H   0  0  0  0  0  0  0  0  0  0  0  0
   -2.1434   -5.3625    0.0000 C   0  0  0  0  0  0  0  0  0  0  0  0
   -2.8579   -4.9500    0.0000 H   0  0  0  0  0  0  0  0  0  0  0  0
   -1.4289   -4.9500    0.0000 C   0  0  0  0  0  0  0  0  0  0  0  0
   -1.4289   -4.1250    0.0000 N   0  3  0  0  0  0  0  0  0  0  0  0
   -0.7145   -3.7125    0.0000 O   0  0  0  0  0  0  0  0  0  0  0  0
   -2.1434   -3.7125    0.0000 O   0  5  0  0  0  0  0  0  0  0  0  0
    0.7145   -2.8875    0.0000 C   0  0  0  0  0  0  0  0  0  0  0  0
    0.0000   -2.4750    0.0000 C   0  0  0  0  0  0  0  0  0  0  0  0
    0.0000   -1.6500    0.0000 O   0  0  0  0  0  0  0  0  0  0  0  0
   -0.7145   -2.8875    0.0000 N   0  0  0  0  0  0  0  0  0  0  0  0
   -1.1678   -2.1982    0.0000 H   0  0  0  0  0  0  0  0  0  0  0  0
   -1.5381   -2.8395    0.0000 H   0  0  0  0  0  0  0  0  0  0  0  0
  1  2  1  0  0  0  0
  2  3  4  0  0  0  0
  3  4  4  0  0  0  0
  4  5  1  0  0  0  0
  5  6  1  0  0  0  0
  5  7  1  0  0  0  0
  7  8  4  0  0  0  0
  8  9  1  0  0  0  0
  8 10  4  0  0  0  0
 10 11  1  0  0  0  0
 10 12  4  0  0  0  0
 12 13  1  0  0  0  0
 13 14  1  0  0  0  0
 14 15  1  0  0  0  0
 14 16  1  0  0  0  0
 14 17  1  0  0  0  0
 17 18  1  0  0  0  0
 17 19  1  0  0  0  0
 17 20  1  0  0  0  0
 20 21  1  0  0  0  0
 21 22  1  0  0  0  0
 21 23  1  0  0  0  0
 21 24  1  0  0  0  0
 13 24  1  0  0  0  0
 24 25  1  0  0  0  0
 24 26  1  0  0  0  0
 12 27  4  0  0  0  0
 27 28  1  0  0  0  0
 27 29  4  0  0  0  0
  7 29  4  0  0  0  0
 29 30  1  0  0  0  0
  4 31  4  0  0  0  0
 31 32  4  0  0  0  0
 32 33  1  0  0  0  0
 33 34  1  0  0  0  0
 33 35  1  0  0  0  0
 35 36  1  0  0  0  0
 35 37  1  0  0  0  0
 35 38  1  0  0  0  0
 38 39  4  0  0  0  0
 39 40  1  0  0  0  0
 39 41  4  0  0  0  0
 41 42  1  0  0  0  0
 41 43  4  0  0  0  0
 43 44  1  0  0  0  0
 43 45  4  0  0  0  0
 45 46  1  0  0  0  0
 45 47  4  0  0  0  0
 38 47  4  0  0  0  0
 47 48  1  0  0  0  0
 48 49  2  0  0  0  0
 48 50  1  0  0  0  0
 32 51  4  0  0  0  0
  2 51  4  0  0  0  0
 51 52  1  0  0  0  0
 52 53  2  0  0  0  0
 52 54  1  0  0  0  0
 54 55  1  0  0  0  0
 54 56  1  0  0  0  0
M  CHG  2  48   1  50  -1
M  END
> <pActivity>
7.420216403383189

$$$$
CHEMBL512519
  Mrv2316 04152410472D          

 57 60  0  0  0  0            999 V2000
    1.4289   -1.6500    0.0000 H   0  0  0  0  0  0  0  0  0  0  0  0
    1.4289   -2.4750    0.0000 C   0  0  0  0  0  0  0  0  0  0  0  0
    2.1434   -2.8875    0.0000 N   0  0  0  0  0  0  0  0  0  0  0  0
    2.1434   -3.7125    0.0000 C   0  0  0  0  0  0  0  0  0  0  0  0
    2.8579   -4.1250    0.0000 N   0  0  0  0  0  0  0  0  0  0  0  0
    2.8579   -4.9500    0.0000 H   0  0  0  0  0  0  0  0  0  0  0  0
    3.5724   -3.7125    0.0000 C   0  0  0  0  0  0  0  0  0  0  0  0
    3.5724   -2.8875    0.0000 C   0  0  0  0  0  0  0  0  0  0  0  0
    2.8579   -2.4750    0.0000 H   0  0  0  0  0  0  0  0  0  0  0  0
    4.2868   -2.4750    0.0000 C   0  0  0  0  0  0  0  0  0  0  0  0
    4.2868   -1.6500    0.0000 H   0  0  0  0  0  0  0  0  0  0  0  0
    5.0013   -2.8875    0.0000 C   0  0  0  0  0  0  0  0  0  0  0  0
    5.7158   -2.4750    0.0000 N   0  0  0  0  0  0  0  0  0  0  0  0
    5.7158   -1.6500    0.0000 C   0  0  0  0  0  0  0  0  0  0  0  0
    5.2624   -0.9607    0.0000 H   0  0  0  0  0  0  0  0  0  0  0  0
    4.8922   -1.6020    0.0000 H   0  0  0  0  0  0  0  0  0  0  0  0
    6.4302   -1.2375    0.0000 C   0  0  0  0  0  0  0  0  0  0  0  0
    6.8005   -0.5003    0.0000 H   0  0  0  0  0  0  0  0  0  0  0  0
    6.0600   -0.5003    0.0000 H   0  0  0  0  0  0  0  0  0  0  0  0
    7.1447   -1.6500    0.0000 O   0  0  0  0  0  0  0  0  0  0  0  0
    7.1447   -2.4750    0.0000 C   0  0  0  0  0  0  0  0  0  0  0  0
    7.5981   -3.1643    0.0000 H   0  0  0  0  0  0  0  0  0  0  0  0
    7.9683   -2.5230    0.0000 H   0  0  0  0  0  0  0  0  0  0  0  0
    6.4302   -2.8875    0.0000 C   0  0  0  0  0  0  0  0  0  0  0  0
    6.0600   -3.6247    0.0000 H   0  0  0  0  0  0  0  0  0  0  0  0
    6.8005   -3.6247    0.0000 H   0  0  0  0  0  0  0  0  0  0  0  0
    5.0013   -3.7125    0.0000 C   0  0  0  0  0  0  0  0  0  0  0  0
    5.7158   -4.1250    0.0000 H   0  0  0  0  0  0  0  0  0  0  0  0
    4.2868   -4.1250    0.0000 C   0  0  0  0  0  0  0  0  0  0  0  0
    4.2868   -4.9500    0.0000 H   0  0  0  0  0  0  0  0  0  0  0  0
    1.4289   -4.1250    0.0000 N   0  0  0  0  0  0  0  0  0  0  0  0
    0.7145   -3.7125    0.0000 C   0  0  0  0  0  0  0  0  0  0  0  0
    0.0000   -4.1250    0.0000 N   0  0  0  0  0  0  0  0  0  0  0  0
   -0.2135   -3.3281    0.0000 H   0  0  0  0  0  0  0  0  0  0  0  0
    0.0000   -4.9500    0.0000 C   0  0  0  0  0  0  0  0  0  0  0  0
    0.4533   -5.6393    0.0000 H   0  0  0  0  0  0  0  0  0  0  0  0
    0.8236   -4.9980    0.0000 H   0  0  0  0  0  0  0  0  0  0  0  0
   -0.7145   -5.3625    0.0000 C   0  0  0  0  0  0  0  0  0  0  0  0
   -0.7145   -6.1875    0.0000 C   0  0  0  0  0  0  0  0  0  0  0  0
   -0.0000   -6.6000    0.0000 H   0  0  0  0  0  0  0  0  0  0  0  0
   -1.4289   -6.6000    0.0000 C   0  0  0  0  0  0  0  0  0  0  0  0
   -1.4289   -7.4250    0.0000 H   0  0  0  0  0  0  0  0  0  0  0  0
   -2.1434   -6.1875    0.0000 C   0  0  0  0  0  0  0  0  0  0  0  0
   -2.8579   -6.6000    0.0000 H   0  0  0  0  0  0  0  0  0  0  0  0
   -2.1434   -5.3625    0.0000 C   0  0  0  0  0  0  0  0  0  0  0  0
   -2.8579   -4.9500    0.0000 H   0  0  0  0  0  0  0  0  0  0  0  0
   -1.4289   -4.9500    0.0000 C   0  0  0  0  0  0  0  0  0  0  0  0
   -1.4289   -4.1250    0.0000 C   0  0  0  0  0  0  0  0  0  0  0  0
   -1.4289   -3.3000    0.0000 F   0  0  0  0  0  0  0  0  0  0  0  0
   -0.6039   -4.1250    0.0000 F   0  0  0  0  0  0  0  0  0  0  0  0
   -2.2539   -4.1250    0.0000 F   0  0  0  0  0  0  0  0  0  0  0  0
    0.7145   -2.8875    0.0000 C   0  0  0  0  0  0  0  0  0  0  0  0
    0.0000   -2.4750    0.0000 C   0  0  0  0  0  0  0  0  0  0  0  0
    0.0000   -1.6500    0.0000 O   0  0  0  0  0  0  0  0  0  0  0  0
   -0.7145   -2.8875    0.0000 N   0  0  0  0  0  0  0  0  0  0  0  0
   -0.8577   -2.0750    0.0000 H   0  0  0  0  0  0  0  0  0  0  0  0
   -1.3465   -2.3572    0.0000 H   0  0  0  0  0  0  0  0  0  0  0  0
  1  2  1  0  0  0  0
  2  3  4  0  0  0  0
  3  4  4  0  0  0  0
  4  5  1  0  0  0  0
  5  6  1  0  0  0  0
  5  7  1  0  0  0  0
  7  8  4  0  0  0  0
  8  9  1  0  0  0  0
  8 10  4  0  0  0  0
 10 11  1  0  0  0  0
 10 12  4  0  0  0  0
 12 13  1  0  0  0  0
 13 14  1  0  0  0  0
 14 15  1  0  0  0  0
 14 16  1  0  0  0  0
 14 17  1  0  0  0  0
 17 18  1  0  0  0  0
 17 19  1  0  0  0  0
 17 20  1  0  0  0  0
 20 21  1  0  0  0  0
 21 22  1  0  0  0  0
 21 23  1  0  0  0  0
 21 24  1  0  0  0  0
 13 24  1  0  0  0  0
 24 25  1  0  0  0  0
 24 26  1  0  0  0  0
 12 27  4  0  0  0  0
 27 28  1  0  0  0  0
 27 29  4  0  0  0  0
  7 29  4  0  0  0  0
 29 30  1  0  0  0  0
  4 31  4  0  0  0  0
 31 32  4  0  0  0  0
 32 33  1  0  0  0  0
 33 34  1  0  0  0  0
 33 35  1  0  0  0  0
 35 36  1  0  0  0  0
 35 37  1  0  0  0  0
 35 38  1  0  0  0  0
 38 39  4  0  0  0  0
 39 40  1  0  0  0  0
 39 41  4  0  0  0  0
 41 42  1  0  0  0  0
 41 43  4  0  0  0  0
 43 44  1  0  0  0  0
 43 45  4  0  0  0  0
 45 46  1  0  0  0  0
 45 47  4  0  0  0  0
 38 47  4  0  0  0  0
 47 48  1  0  0  0  0
 48 49  1  0  0  0  0
 48 50  1  0  0  0  0
 48 51  1  0  0  0  0
 32 52  4  0  0  0  0
  2 52  4  0  0  0  0
 52 53  1  0  0  0  0
 53 54  2  0  0  0  0
 53 55  1  0  0  0  0
 55 56  1  0  0  0  0
 55 57  1  0  0  0  0
M  END
> <pActivity>
7.602059991327962

$$$$
CHEMBL471131
  Mrv2316 04152410472D          

 54 57  0  0  0  0            999 V2000
    1.4289   -1.6500    0.0000 H   0  0  0  0  0  0  0  0  0  0  0  0
    1.4289   -2.4750    0.0000 C   0  0  0  0  0  0  0  0  0  0  0  0
    2.1434   -2.8875    0.0000 N   0  0  0  0  0  0  0  0  0  0  0  0
    2.1434   -3.7125    0.0000 C   0  0  0  0  0  0  0  0  0  0  0  0
    2.8579   -4.1250    0.0000 N   0  0  0  0  0  0  0  0  0  0  0  0
    2.8579   -4.9500    0.0000 H   0  0  0  0  0  0  0  0  0  0  0  0
    3.5724   -3.7125    0.0000 C   0  0  0  0  0  0  0  0  0  0  0  0
    3.5724   -2.8875    0.0000 C   0  0  0  0  0  0  0  0  0  0  0  0
    2.8579   -2.4750    0.0000 H   0  0  0  0  0  0  0  0  0  0  0  0
    4.2868   -2.4750    0.0000 C   0  0  0  0  0  0  0  0  0  0  0  0
    4.2868   -1.6500    0.0000 H   0  0  0  0  0  0  0  0  0  0  0  0
    5.0013   -2.8875    0.0000 C   0  0  0  0  0  0  0  0  0  0  0  0
    5.7158   -2.4750    0.0000 N   0  0  0  0  0  0  0  0  0  0  0  0
    5.7158   -1.6500    0.0000 C   0  0  0  0  0  0  0  0  0  0  0  0
    5.2624   -0.9607    0.0000 H   0  0  0  0  0  0  0  0  0  0  0  0
    4.8922   -1.6020    0.0000 H   0  0  0  0  0  0  0  0  0  0  0  0
    6.4302   -1.2375    0.0000 C   0  0  0  0  0  0  0  0  0  0  0  0
    6.8005   -0.5003    0.0000 H   0  0  0  0  0  0  0  0  0  0  0  0
    6.0600   -0.5003    0.0000 H   0  0  0  0  0  0  0  0  0  0  0  0
    7.1447   -1.6500    0.0000 O   0  0  0  0  0  0  0  0  0  0  0  0
    7.1447   -2.4750    0.0000 C   0  0  0  0  0  0  0  0  0  0  0  0
    7.5981   -3.1643    0.0000 H   0  0  0  0  0  0  0  0  0  0  0  0
    7.9683   -2.5230    0.0000 H   0  0  0  0  0  0  0  0  0  0  0  0
    6.4302   -2.8875    0.0000 C   0  0  0  0  0  0  0  0  0  0  0  0
    6.0600   -3.6247    0.0000 H   0  0  0  0  0  0  0  0  0  0  0  0
    6.8005   -3.6247    0.0000 H   0  0  0  0  0  0  0  0  0  0  0  0
    5.0013   -3.7125    0.0000 C   0  0  0  0  0  0  0  0  0  0  0  0
    5.7158   -4.1250    0.0000 H   0  0  0  0  0  0  0  0  0  0  0  0
    4.2868   -4.1250    0.0000 C   0  0  0  0  0  0  0  0  0  0  0  0
    4.2868   -4.9500    0.0000 H   0  0  0  0  0  0  0  0  0  0  0  0
    1.4289   -4.1250    0.0000 N   0  0  0  0  0  0  0  0  0  0  0  0
    0.7145   -3.7125    0.0000 C   0  0  0  0  0  0  0  0  0  0  0  0
    0.0000   -4.1250    0.0000 N   0  0  0  0  0  0  0  0  0  0  0  0
   -0.7145   -3.7125    0.0000 H   0  0  0  0  0  0  0  0  0  0  0  0
    0.0000   -4.9500    0.0000 C   0  0  0  0  0  0  0  0  0  0  0  0
    0.4533   -5.6393    0.0000 H   0  0  0  0  0  0  0  0  0  0  0  0
    0.8236   -4.9980    0.0000 H   0  0  0  0  0  0  0  0  0  0  0  0
   -0.7145   -5.3625    0.0000 C   0  0  0  0  0  0  0  0  0  0  0  0
   -0.7145   -6.1875    0.0000 C   0  0  0  0  0  0  0  0  0  0  0  0
   -0.0000   -6.6000    0.0000 H   0  0  0  0  0  0  0  0  0  0  0  0
   -1.4289   -6.6000    0.0000 C   0  0  0  0  0  0  0  0  0  0  0  0
   -1.4289   -7.4250    0.0000 H   0  0  0  0  0  0  0  0  0  0  0  0
   -2.1434   -6.1875    0.0000 C   0  0  0  0  0  0  0  0  0  0  0  0
   -2.8579   -6.6000    0.0000 H   0  0  0  0  0  0  0  0  0  0  0  0
   -2.1434   -5.3625    0.0000 C   0  0  0  0  0  0  0  0  0  0  0  0
   -2.8579   -4.9500    0.0000 H   0  0  0  0  0  0  0  0  0  0  0  0
   -1.4289   -4.9500    0.0000 C   0  0  0  0  0  0  0  0  0  0  0  0
   -1.4289   -4.1250    0.0000 Cl  0  0  0  0  0  0  0  0  0  0  0  0
    0.7145   -2.8875    0.0000 C   0  0  0  0  0  0  0  0  0  0  0  0
    0.0000   -2.4750    0.0000 C   0  0  0  0  0  0  0  0  0  0  0  0
    0.0000   -1.6500    0.0000 O   0  0  0  0  0  0  0  0  0  0  0  0
   -0.7145   -2.8875    0.0000 N   0  0  0  0  0  0  0  0  0  0  0  0
   -1.1678   -2.1982    0.0000 H   0  0  0  0  0  0  0  0  0  0  0  0
   -1.5381   -2.8395    0.0000 H   0  0  0  0  0  0  0  0  0  0  0  0
  1  2  1  0  0  0  0
  2  3  4  0  0  0  0
  3  4  4  0  0  0  0
  4  5  1  0  0  0  0
  5  6  1  0  0  0  0
  5  7  1  0  0  0  0
  7  8  4  0  0  0  0
  8  9  1  0  0  0  0
  8 10  4  0  0  0  0
 10 11  1  0  0  0  0
 10 12  4  0  0  0  0
 12 13  1  0  0  0  0
 13 14  1  0  0  0  0
 14 15  1  0  0  0  0
 14 16  1  0  0  0  0
 14 17  1  0  0  0  0
 17 18  1  0  0  0  0
 17 19  1  0  0  0  0
 17 20  1  0  0  0  0
 20 21  1  0  0  0  0
 21 22  1  0  0  0  0
 21 23  1  0  0  0  0
 21 24  1  0  0  0  0
 13 24  1  0  0  0  0
 24 25  1  0  0  0  0
 24 26  1  0  0  0  0
 12 27  4  0  0  0  0
 27 28  1  0  0  0  0
 27 29  4  0  0  0  0
  7 29  4  0  0  0  0
 29 30  1  0  0  0  0
  4 31  4  0  0  0  0
 31 32  4  0  0  0  0
 32 33  1  0  0  0  0
 33 34  1  0  0  0  0
 33 35  1  0  0  0  0
 35 36  1  0  0  0  0
 35 37  1  0  0  0  0
 35 38  1  0  0  0  0
 38 39  4  0  0  0  0
 39 40  1  0  0  0  0
 39 41  4  0  0  0  0
 41 42  1  0  0  0  0
 41 43  4  0  0  0  0
 43 44  1  0  0  0  0
 43 45  4  0  0  0  0
 45 46  1  0  0  0  0
 45 47  4  0  0  0  0
 38 47  4  0  0  0  0
 47 48  1  0  0  0  0
 32 49  4  0  0  0  0
  2 49  4  0  0  0  0
 49 50  1  0  0  0  0
 50 51  2  0  0  0  0
 50 52  1  0  0  0  0
 52 53  1  0  0  0  0
 52 54  1  0  0  0  0
M  END
> <pActivity>
8.102372908709558

$$$$
CHEMBL469910
  Mrv2316 04152410472D          

 58 61  0  0  0  0            999 V2000
    1.4289   -1.6500    0.0000 H   0  0  0  0  0  0  0  0  0  0  0  0
    1.4289   -2.4750    0.0000 C   0  0  0  0  0  0  0  0  0  0  0  0
    2.1434   -2.8875    0.0000 N   0  0  0  0  0  0  0  0  0  0  0  0
    2.1434   -3.7125    0.0000 C   0  0  0  0  0  0  0  0  0  0  0  0
    2.8579   -4.1250    0.0000 N   0  0  0  0  0  0  0  0  0  0  0  0
    2.8579   -4.9500    0.0000 H   0  0  0  0  0  0  0  0  0  0  0  0
    3.5724   -3.7125    0.0000 C   0  0  0  0  0  0  0  0  0  0  0  0
    3.5724   -2.8875    0.0000 C   0  0  0  0  0  0  0  0  0  0  0  0
    2.8579   -2.4750    0.0000 H   0  0  0  0  0  0  0  0  0  0  0  0
    4.2868   -2.4750    0.0000 C   0  0  0  0  0  0  0  0  0  0  0  0
    4.2868   -1.6500    0.0000 H   0  0  0  0  0  0  0  0  0  0  0  0
    5.0013   -2.8875    0.0000 C   0  0  0  0  0  0  0  0  0  0  0  0
    5.7158   -2.4750    0.0000 N   0  0  0  0  0  0  0  0  0  0  0  0
    5.7158   -1.6500    0.0000 C   0  0  0  0  0  0  0  0  0  0  0  0
    5.2624   -0.9607    0.0000 H   0  0  0  0  0  0  0  0  0  0  0  0
    4.8922   -1.6020    0.0000 H   0  0  0  0  0  0  0  0  0  0  0  0
    6.4302   -1.2375    0.0000 C   0  0  0  0  0  0  0  0  0  0  0  0
    6.8005   -0.5003    0.0000 H   0  0  0  0  0  0  0  0  0  0  0  0
    6.0600   -0.5003    0.0000 H   0  0  0  0  0  0  0  0  0  0  0  0
    7.1447   -1.6500    0.0000 O   0  0  0  0  0  0  0  0  0  0  0  0
    7.1447   -2.4750    0.0000 C   0  0  0  0  0  0  0  0  0  0  0  0
    7.5981   -3.1643    0.0000 H   0  0  0  0  0  0  0  0  0  0  0  0
    7.9683   -2.5230    0.0000 H   0  0  0  0  0  0  0  0  0  0  0  0
    6.4302   -2.8875    0.0000 C   0  0  0  0  0  0  0  0  0  0  0  0
    6.0600   -3.6247    0.0000 H   0  0  0  0  0  0  0  0  0  0  0  0
    6.8005   -3.6247    0.0000 H   0  0  0  0  0  0  0  0  0  0  0  0
    5.0013   -3.7125    0.0000 C   0  0  0  0  0  0  0  0  0  0  0  0
    5.7158   -4.1250    0.0000 H   0  0  0  0  0  0  0  0  0  0  0  0
    4.2868   -4.1250    0.0000 C   0  0  0  0  0  0  0  0  0  0  0  0
    4.2868   -4.9500    0.0000 H   0  0  0  0  0  0  0  0  0  0  0  0
    1.4289   -4.1250    0.0000 N   0  0  0  0  0  0  0  0  0  0  0  0
    0.7145   -3.7125    0.0000 C   0  0  0  0  0  0  0  0  0  0  0  0
    0.0000   -4.1250    0.0000 N   0  0  0  0  0  0  0  0  0  0  0  0
    0.0000   -3.3000    0.0000 H   0  0  0  0  0  0  0  0  0  0  0  0
    0.0000   -4.9500    0.0000 C   0  0  0  0  0  0  0  0  0  0  0  0
    0.4533   -5.6393    0.0000 H   0  0  0  0  0  0  0  0  0  0  0  0
    0.8236   -4.9980    0.0000 H   0  0  0  0  0  0  0  0  0  0  0  0
   -0.7145   -5.3625    0.0000 C   0  0  0  0  0  0  0  0  0  0  0  0
   -0.7145   -6.1875    0.0000 C   0  0  0  0  0  0  0  0  0  0  0  0
   -0.0000   -6.6000    0.0000 H   0  0  0  0  0  0  0  0  0  0  0  0
   -1.4289   -6.6000    0.0000 C   0  0  0  0  0  0  0  0  0  0  0  0
   -1.4289   -7.4250    0.0000 H   0  0  0  0  0  0  0  0  0  0  0  0
   -2.1434   -6.1875    0.0000 C   0  0  0  0  0  0  0  0  0  0  0  0
   -2.8579   -6.6000    0.0000 H   0  0  0  0  0  0  0  0  0  0  0  0
   -2.1434   -5.3625    0.0000 C   0  0  0  0  0  0  0  0  0  0  0  0
   -2.8579   -4.9500    0.0000 H   0  0  0  0  0  0  0  0  0  0  0  0
   -1.4289   -4.9500    0.0000 C   0  0  0  0  0  0  0  0  0  0  0  0
   -1.4289   -4.1250    0.0000 O   0  0  0  0  0  0  0  0  0  0  0  0
   -0.7145   -3.7125    0.0000 C   0  0  0  0  0  0  0  0  0  0  0  0
   -0.9966   -4.4877    0.0000 H   0  0  0  0  0  0  0  0  0  0  0  0
   -0.4323   -4.4877    0.0000 H   0  0  0  0  0  0  0  0  0  0  0  0
   -1.4289   -3.3000    0.0000 H   0  0  0  0  0  0  0  0  0  0  0  0
    0.7145   -2.8875    0.0000 C   0  0  0  0  0  0  0  0  0  0  0  0
    0.0000   -2.4750    0.0000 C   0  0  0  0  0  0  0  0  0  0  0  0
    0.0000   -1.6500    0.0000 O   0  0  0  0  0  0  0  0  0  0  0  0
   -0.7145   -2.8875    0.0000 N   0  0  0  0  0  0  0  0  0  0  0  0
   -0.8577   -2.0750    0.0000 H   0  0  0  0  0  0  0  0  0  0  0  0
   -1.3465   -2.3572    0.0000 H   0  0  0  0  0  0  0  0  0  0  0  0
  1  2  1  0  0  0  0
  2  3  4  0  0  0  0
  3  4  4  0  0  0  0
  4  5  1  0  0  0  0
  5  6  1  0  0  0  0
  5  7  1  0  0  0  0
  7  8  4  0  0  0  0
  8  9  1  0  0  0  0
  8 10  4  0  0  0  0
 10 11  1  0  0  0  0
 10 12  4  0  0  0  0
 12 13  1  0  0  0  0
 13 14  1  0  0  0  0
 14 15  1  0  0  0  0
 14 16  1  0  0  0  0
 14 17  1  0  0  0  0
 17 18  1  0  0  0  0
 17 19  1  0  0  0  0
 17 20  1  0  0  0  0
 20 21  1  0  0  0  0
 21 22  1  0  0  0  0
 21 23  1  0  0  0  0
 21 24  1  0  0  0  0
 13 24  1  0  0  0  0
 24 25  1  0  0  0  0
 24 26  1  0  0  0  0
 12 27  4  0  0  0  0
 27 28  1  0  0  0  0
 27 29  4  0  0  0  0
  7 29  4  0  0  0  0
 29 30  1  0  0  0  0
  4 31  4  0  0  0  0
 31 32  4  0  0  0  0
 32 33  1  0  0  0  0
 33 34  1  0  0  0  0
 33 35  1  0  0  0  0
 35 36  1  0  0  0  0
 35 37  1  0  0  0  0
 35 38  1  0  0  0  0
 38 39  4  0  0  0  0
 39 40  1  0  0  0  0
 39 41  4  0  0  0  0
 41 42  1  0  0  0  0
 41 43  4  0  0  0  0
 43 44  1  0  0  0  0
 43 45  4  0  0  0  0
 45 46  1  0  0  0  0
 45 47  4  0  0  0  0
 38 47  4  0  0  0  0
 47 48  1  0  0  0  0
 48 49  1  0  0  0  0
 49 50  1  0  0  0  0
 49 51  1  0  0  0  0
 49 52  1  0  0  0  0
 32 53  4  0  0  0  0
  2 53  4  0  0  0  0
 53 54  1  0  0  0  0
 54 55  2  0  0  0  0
 54 56  1  0  0  0  0
 56 57  1  0  0  0  0
 56 58  1  0  0  0  0
M  END
> <pActivity>
8.086186147616283

$$$$
CHEMBL512533
  Mrv2316 04152410472D          

 57 60  0  0  0  0            999 V2000
    1.4289   -1.6500    0.0000 H   0  0  0  0  0  0  0  0  0  0  0  0
    1.4289   -2.4750    0.0000 C   0  0  0  0  0  0  0  0  0  0  0  0
    2.1434   -2.8875    0.0000 N   0  0  0  0  0  0  0  0  0  0  0  0
    2.1434   -3.7125    0.0000 C   0  0  0  0  0  0  0  0  0  0  0  0
    2.8579   -4.1250    0.0000 N   0  0  0  0  0  0  0  0  0  0  0  0
    2.8579   -4.9500    0.0000 H   0  0  0  0  0  0  0  0  0  0  0  0
    3.5724   -3.7125    0.0000 C   0  0  0  0  0  0  0  0  0  0  0  0
    3.5724   -2.8875    0.0000 C   0  0  0  0  0  0  0  0  0  0  0  0
    2.8579   -2.4750    0.0000 H   0  0  0  0  0  0  0  0  0  0  0  0
    4.2868   -2.4750    0.0000 C   0  0  0  0  0  0  0  0  0  0  0  0
    4.2868   -1.6500    0.0000 H   0  0  0  0  0  0  0  0  0  0  0  0
    5.0013   -2.8875    0.0000 C   0  0  0  0  0  0  0  0  0  0  0  0
    5.7158   -2.4750    0.0000 N   0  0  0  0  0  0  0  0  0  0  0  0
    5.7158   -1.6500    0.0000 C   0  0  0  0  0  0  0  0  0  0  0  0
    5.2624   -0.9607    0.0000 H   0  0  0  0  0  0  0  0  0  0  0  0
    4.8922   -1.6020    0.0000 H   0  0  0  0  0  0  0  0  0  0  0  0
    6.4302   -1.2375    0.0000 C   0  0  0  0  0  0  0  0  0  0  0  0
    6.8005   -0.5003    0.0000 H   0  0  0  0  0  0  0  0  0  0  0  0
    6.0600   -0.5003    0.0000 H   0  0  0  0  0  0  0  0  0  0  0  0
    7.1447   -1.6500    0.0000 O   0  0  0  0  0  0  0  0  0  0  0  0
    7.1447   -2.4750    0.0000 C   0  0  0  0  0  0  0  0  0  0  0  0
    7.5981   -3.1643    0.0000 H   0  0  0  0  0  0  0  0  0  0  0  0
    7.9683   -2.5230    0.0000 H   0  0  0  0  0  0  0  0  0  0  0  0
    6.4302   -2.8875    0.0000 C   0  0  0  0  0  0  0  0  0  0  0  0
    6.0600   -3.6247    0.0000 H   0  0  0  0  0  0  0  0  0  0  0  0
    6.8005   -3.6247    0.0000 H   0  0  0  0  0  0  0  0  0  0  0  0
    5.0013   -3.7125    0.0000 C   0  0  0  0  0  0  0  0  0  0  0  0
    5.7158   -4.1250    0.0000 H   0  0  0  0  0  0  0  0  0  0  0  0
    4.2868   -4.1250    0.0000 C   0  0  0  0  0  0  0  0  0  0  0  0
    4.2868   -4.9500    0.0000 H   0  0  0  0  0  0  0  0  0  0  0  0
    1.4289   -4.1250    0.0000 N   0  0  0  0  0  0  0  0  0  0  0  0
    0.7145   -3.7125    0.0000 C   0  0  0  0  0  0  0  0  0  0  0  0
    0.0000   -4.1250    0.0000 N   0  0  0  0  0  0  0  0  0  0  0  0
   -0.7145   -3.7125    0.0000 H   0  0  0  0  0  0  0  0  0  0  0  0
    0.0000   -4.9500    0.0000 C   0  0  0  0  0  0  0  0  0  0  0  0
    0.4533   -5.6393    0.0000 H   0  0  0  0  0  0  0  0  0  0  0  0
    0.8236   -4.9980    0.0000 H   0  0  0  0  0  0  0  0  0  0  0  0
   -0.7145   -5.3625    0.0000 C   0  0  0  0  0  0  0  0  0  0  0  0
   -0.7145   -6.1875    0.0000 C   0  0  0  0  0  0  0  0  0  0  0  0
   -0.0000   -6.6000    0.0000 H   0  0  0  0  0  0  0  0  0  0  0  0
   -1.4289   -6.6000    0.0000 C   0  0  0  0  0  0  0  0  0  0  0  0
   -1.4289   -7.4250    0.0000 H   0  0  0  0  0  0  0  0  0  0  0  0
   -2.1434   -6.1875    0.0000 C   0  0  0  0  0  0  0  0  0  0  0  0
   -2.8579   -6.6000    0.0000 H   0  0  0  0  0  0  0  0  0  0  0  0
   -2.1434   -5.3625    0.0000 C   0  0  0  0  0  0  0  0  0  0  0  0
   -2.8579   -4.9500    0.0000 H   0  0  0  0  0  0  0  0  0  0  0  0
   -1.4289   -4.9500    0.0000 C   0  0  0  0  0  0  0  0  0  0  0  0
   -1.4289   -4.1250    0.0000 C   0  0  0  0  0  0  0  0  0  0  0  0
   -1.4289   -3.3000    0.0000 H   0  0  0  0  0  0  0  0  0  0  0  0
   -2.1434   -3.7125    0.0000 H   0  0  0  0  0  0  0  0  0  0  0  0
   -2.1434   -4.5375    0.0000 H   0  0  0  0  0  0  0  0  0  0  0  0
    0.7145   -2.8875    0.0000 C   0  0  0  0  0  0  0  0  0  0  0  0
    0.0000   -2.4750    0.0000 C   0  0  0  0  0  0  0  0  0  0  0  0
    0.0000   -1.6500    0.0000 O   0  0  0  0  0  0  0  0  0  0  0  0
   -0.7145   -2.8875    0.0000 N   0  0  0  0  0  0  0  0  0  0  0  0
   -0.8577   -2.0750    0.0000 H   0  0  0  0  0  0  0  0  0  0  0  0
   -1.3465   -2.3572    0.0000 H   0  0  0  0  0  0  0  0  0  0  0  0
  1  2  1  0  0  0  0
  2  3  4  0  0  0  0
  3  4  4  0  0  0  0
  4  5  1  0  0  0  0
  5  6  1  0  0  0  0
  5  7  1  0  0  0  0
  7  8  4  0  0  0  0
  8  9  1  0  0  0  0
  8 10  4  0  0  0  0
 10 11  1  0  0  0  0
 10 12  4  0  0  0  0
 12 13  1  0  0  0  0
 13 14  1  0  0  0  0
 14 15  1  0  0  0  0
 14 16  1  0  0  0  0
 14 17  1  0  0  0  0
 17 18  1  0  0  0  0
 17 19  1  0  0  0  0
 17 20  1  0  0  0  0
 20 21  1  0  0  0  0
 21 22  1  0  0  0  0
 21 23  1  0  0  0  0
 21 24  1  0  0  0  0
 13 24  1  0  0  0  0
 24 25  1  0  0  0  0
 24 26  1  0  0  0  0
 12 27  4  0  0  0  0
 27 28  1  0  0  0  0
 27 29  4  0  0  0  0
  7 29  4  0  0  0  0
 29 30  1  0  0  0  0
  4 31  4  0  0  0  0
 31 32  4  0  0  0  0
 32 33  1  0  0  0  0
 33 34  1  0  0  0  0
 33 35  1  0  0  0  0
 35 36  1  0  0  0  0
 35 37  1  0  0  0  0
 35 38  1  0  0  0  0
 38 39  4  0  0  0  0
 39 40  1  0  0  0  0
 39 41  4  0  0  0  0
 41 42  1  0  0  0  0
 41 43  4  0  0  0  0
 43 44  1  0  0  0  0
 43 45  4  0  0  0  0
 45 46  1  0  0  0  0
 45 47  4  0  0  0  0
 38 47  4  0  0  0  0
 47 48  1  0  0  0  0
 48 49  1  0  0  0  0
 48 50  1  0  0  0  0
 48 51  1  0  0  0  0
 32 52  4  0  0  0  0
  2 52  4  0  0  0  0
 52 53  1  0  0  0  0
 53 54  2  0  0  0  0
 53 55  1  0  0  0  0
 55 56  1  0  0  0  0
 55 57  1  0  0  0  0
M  END
> <pActivity>
7.958607314841775

$$$$
CHEMBL470964
  Mrv2316 04152410472D          

 54 57  0  0  0  0            999 V2000
    1.4289   -1.6500    0.0000 H   0  0  0  0  0  0  0  0  0  0  0  0
    1.4289   -2.4750    0.0000 C   0  0  0  0  0  0  0  0  0  0  0  0
    2.1434   -2.8875    0.0000 N   0  0  0  0  0  0  0  0  0  0  0  0
    2.1434   -3.7125    0.0000 C   0  0  0  0  0  0  0  0  0  0  0  0
    2.8579   -4.1250    0.0000 N   0  0  0  0  0  0  0  0  0  0  0  0
    2.8579   -4.9500    0.0000 H   0  0  0  0  0  0  0  0  0  0  0  0
    3.5724   -3.7125    0.0000 C   0  0  0  0  0  0  0  0  0  0  0  0
    3.5724   -2.8875    0.0000 C   0  0  0  0  0  0  0  0  0  0  0  0
    2.8579   -2.4750    0.0000 H   0  0  0  0  0  0  0  0  0  0  0  0
    4.2868   -2.4750    0.0000 C   0  0  0  0  0  0  0  0  0  0  0  0
    4.2868   -1.6500    0.0000 H   0  0  0  0  0  0  0  0  0  0  0  0
    5.0013   -2.8875    0.0000 C   0  0  0  0  0  0  0  0  0  0  0  0
    5.7158   -2.4750    0.0000 N   0  0  0  0  0  0  0  0  0  0  0  0
    5.7158   -1.6500    0.0000 C   0  0  0  0  0  0  0  0  0  0  0  0
    5.2624   -0.9607    0.0000 H   0  0  0  0  0  0  0  0  0  0  0  0
    4.8922   -1.6020    0.0000 H   0  0  0  0  0  0  0  0  0  0  0  0
    6.4302   -1.2375    0.0000 C   0  0  0  0  0  0  0  0  0  0  0  0
    6.8005   -0.5003    0.0000 H   0  0  0  0  0  0  0  0  0  0  0  0
    6.0600   -0.5003    0.0000 H   0  0  0  0  0  0  0  0  0  0  0  0
    7.1447   -1.6500    0.0000 O   0  0  0  0  0  0  0  0  0  0  0  0
    7.1447   -2.4750    0.0000 C   0  0  0  0  0  0  0  0  0  0  0  0
    7.5981   -3.1643    0.0000 H   0  0  0  0  0  0  0  0  0  0  0  0
    7.9683   -2.5230    0.0000 H   0  0  0  0  0  0  0  0  0  0  0  0
    6.4302   -2.8875    0.0000 C   0  0  0  0  0  0  0  0  0  0  0  0
    6.0600   -3.6247    0.0000 H   0  0  0  0  0  0  0  0  0  0  0  0
    6.8005   -3.6247    0.0000 H   0  0  0  0  0  0  0  0  0  0  0  0
    5.0013   -3.7125    0.0000 C   0  0  0  0  0  0  0  0  0  0  0  0
    5.7158   -4.1250    0.0000 H   0  0  0  0  0  0  0  0  0  0  0  0
    4.2868   -4.1250    0.0000 C   0  0  0  0  0  0  0  0  0  0  0  0
    4.2868   -4.9500    0.0000 H   0  0  0  0  0  0  0  0  0  0  0  0
    1.4289   -4.1250    0.0000 N   0  0  0  0  0  0  0  0  0  0  0  0
    0.7145   -3.7125    0.0000 C   0  0  0  0  0  0  0  0  0  0  0  0
    0.0000   -4.1250    0.0000 N   0  0  0  0  0  0  0  0  0  0  0  0
   -0.7145   -3.7125    0.0000 H   0  0  0  0  0  0  0  0  0  0  0  0
    0.0000   -4.9500    0.0000 C   0  0  0  0  0  0  0  0  0  0  0  0
    0.4533   -5.6393    0.0000 H   0  0  0  0  0  0  0  0  0  0  0  0
    0.8236   -4.9980    0.0000 H   0  0  0  0  0  0  0  0  0  0  0  0
   -0.7145   -5.3625    0.0000 C   0  0  0  0  0  0  0  0  0  0  0  0
   -0.7145   -6.1875    0.0000 C   0  0  0  0  0  0  0  0  0  0  0  0
   -0.0000   -6.6000    0.0000 H   0  0  0  0  0  0  0  0  0  0  0  0
   -1.4289   -6.6000    0.0000 C   0  0  0  0  0  0  0  0  0  0  0  0
   -1.4289   -7.4250    0.0000 H   0  0  0  0  0  0  0  0  0  0  0  0
   -2.1434   -6.1875    0.0000 C   0  0  0  0  0  0  0  0  0  0  0  0
   -2.8579   -6.6000    0.0000 F   0  0  0  0  0  0  0  0  0  0  0  0
   -2.1434   -5.3625    0.0000 C   0  0  0  0  0  0  0  0  0  0  0  0
   -2.8579   -4.9500    0.0000 H   0  0  0  0  0  0  0  0  0  0  0  0
   -1.4289   -4.9500    0.0000 C   0  0  0  0  0  0  0  0  0  0  0  0
   -1.4289   -4.1250    0.0000 H   0  0  0  0  0  0  0  0  0  0  0  0
    0.7145   -2.8875    0.0000 C   0  0  0  0  0  0  0  0  0  0  0  0
    0.0000   -2.4750    0.0000 C   0  0  0  0  0  0  0  0  0  0  0  0
    0.0000   -1.6500    0.0000 O   0  0  0  0  0  0  0  0  0  0  0  0
   -0.7145   -2.8875    0.0000 N   0  0  0  0  0  0  0  0  0  0  0  0
   -1.1678   -2.1982    0.0000 H   0  0  0  0  0  0  0  0  0  0  0  0
   -1.5381   -2.8395    0.0000 H   0  0  0  0  0  0  0  0  0  0  0  0
  1  2  1  0  0  0  0
  2  3  4  0  0  0  0
  3  4  4  0  0  0  0
  4  5  1  0  0  0  0
  5  6  1  0  0  0  0
  5  7  1  0  0  0  0
  7  8  4  0  0  0  0
  8  9  1  0  0  0  0
  8 10  4  0  0  0  0
 10 11  1  0  0  0  0
 10 12  4  0  0  0  0
 12 13  1  0  0  0  0
 13 14  1  0  0  0  0
 14 15  1  0  0  0  0
 14 16  1  0  0  0  0
 14 17  1  0  0  0  0
 17 18  1  0  0  0  0
 17 19  1  0  0  0  0
 17 20  1  0  0  0  0
 20 21  1  0  0  0  0
 21 22  1  0  0  0  0
 21 23  1  0  0  0  0
 21 24  1  0  0  0  0
 13 24  1  0  0  0  0
 24 25  1  0  0  0  0
 24 26  1  0  0  0  0
 12 27  4  0  0  0  0
 27 28  1  0  0  0  0
 27 29  4  0  0  0  0
  7 29  4  0  0  0  0
 29 30  1  0  0  0  0
  4 31  4  0  0  0  0
 31 32  4  0  0  0  0
 32 33  1  0  0  0  0
 33 34  1  0  0  0  0
 33 35  1  0  0  0  0
 35 36  1  0  0  0  0
 35 37  1  0  0  0  0
 35 38  1  0  0  0  0
 38 39  4  0  0  0  0
 39 40  1  0  0  0  0
 39 41  4  0  0  0  0
 41 42  1  0  0  0  0
 41 43  4  0  0  0  0
 43 44  1  0  0  0  0
 43 45  4  0  0  0  0
 45 46  1  0  0  0  0
 45 47  4  0  0  0  0
 38 47  4  0  0  0  0
 47 48  1  0  0  0  0
 32 49  4  0  0  0  0
  2 49  4  0  0  0  0
 49 50  1  0  0  0  0
 50 51  2  0  0  0  0
 50 52  1  0  0  0  0
 52 53  1  0  0  0  0
 52 54  1  0  0  0  0
M  END
> <pActivity>
6.187086643357143

$$$$
CHEMBL512874
  Mrv2316 04152410472D          

 54 57  0  0  0  0            999 V2000
    1.4289   -1.6500    0.0000 H   0  0  0  0  0  0  0  0  0  0  0  0
    1.4289   -2.4750    0.0000 C   0  0  0  0  0  0  0  0  0  0  0  0
    2.1434   -2.8875    0.0000 N   0  0  0  0  0  0  0  0  0  0  0  0
    2.1434   -3.7125    0.0000 C   0  0  0  0  0  0  0  0  0  0  0  0
    2.8579   -4.1250    0.0000 N   0  0  0  0  0  0  0  0  0  0  0  0
    2.8579   -4.9500    0.0000 H   0  0  0  0  0  0  0  0  0  0  0  0
    3.5724   -3.7125    0.0000 C   0  0  0  0  0  0  0  0  0  0  0  0
    3.5724   -2.8875    0.0000 C   0  0  0  0  0  0  0  0  0  0  0  0
    2.8579   -2.4750    0.0000 H   0  0  0  0  0  0  0  0  0  0  0  0
    4.2868   -2.4750    0.0000 C   0  0  0  0  0  0  0  0  0  0  0  0
    4.2868   -1.6500    0.0000 H   0  0  0  0  0  0  0  0  0  0  0  0
    5.0013   -2.8875    0.0000 C   0  0  0  0  0  0  0  0  0  0  0  0
    5.7158   -2.4750    0.0000 N   0  0  0  0  0  0  0  0  0  0  0  0
    5.7158   -1.6500    0.0000 C   0  0  0  0  0  0  0  0  0  0  0  0
    5.2624   -0.9607    0.0000 H   0  0  0  0  0  0  0  0  0  0  0  0
    4.8922   -1.6020    0.0000 H   0  0  0  0  0  0  0  0  0  0  0  0
    6.4302   -1.2375    0.0000 C   0  0  0  0  0  0  0  0  0  0  0  0
    6.8005   -0.5003    0.0000 H   0  0  0  0  0  0  0  0  0  0  0  0
    6.0600   -0.5003    0.0000 H   0  0  0  0  0  0  0  0  0  0  0  0
    7.1447   -1.6500    0.0000 O   0  0  0  0  0  0  0  0  0  0  0  0
    7.1447   -2.4750    0.0000 C   0  0  0  0  0  0  0  0  0  0  0  0
    7.5981   -3.1643    0.0000 H   0  0  0  0  0  0  0  0  0  0  0  0
    7.9683   -2.5230    0.0000 H   0  0  0  0  0  0  0  0  0  0  0  0
    6.4302   -2.8875    0.0000 C   0  0  0  0  0  0  0  0  0  0  0  0
    6.0600   -3.6247    0.0000 H   0  0  0  0  0  0  0  0  0  0  0  0
    6.8005   -3.6247    0.0000 H   0  0  0  0  0  0  0  0  0  0  0  0
    5.0013   -3.7125    0.0000 C   0  0  0  0  0  0  0  0  0  0  0  0
    5.7158   -4.1250    0.0000 H   0  0  0  0  0  0  0  0  0  0  0  0
    4.2868   -4.1250    0.0000 C   0  0  0  0  0  0  0  0  0  0  0  0
    4.2868   -4.9500    0.0000 H   0  0  0  0  0  0  0  0  0  0  0  0
    1.4289   -4.1250    0.0000 N   0  0  0  0  0  0  0  0  0  0  0  0
    0.7145   -3.7125    0.0000 C   0  0  0  0  0  0  0  0  0  0  0  0
    0.0000   -4.1250    0.0000 N   0  0  0  0  0  0  0  0  0  0  0  0
   -0.7145   -3.7125    0.0000 H   0  0  0  0  0  0  0  0  0  0  0  0
    0.0000   -4.9500    0.0000 C   0  0  0  0  0  0  0  0  0  0  0  0
    0.4533   -5.6393    0.0000 H   0  0  0  0  0  0  0  0  0  0  0  0
    0.8236   -4.9980    0.0000 H   0  0  0  0  0  0  0  0  0  0  0  0
   -0.7145   -5.3625    0.0000 C   0  0  0  0  0  0  0  0  0  0  0  0
   -0.7145   -6.1875    0.0000 C   0  0  0  0  0  0  0  0  0  0  0  0
   -0.0000   -6.6000    0.0000 H   0  0  0  0  0  0  0  0  0  0  0  0
   -1.4289   -6.6000    0.0000 C   0  0  0  0  0  0  0  0  0  0  0  0
   -1.4289   -7.4250    0.0000 H   0  0  0  0  0  0  0  0  0  0  0  0
   -2.1434   -6.1875    0.0000 C   0  0  0  0  0  0  0  0  0  0  0  0
   -2.8579   -6.6000    0.0000 H   0  0  0  0  0  0  0  0  0  0  0  0
   -2.1434   -5.3625    0.0000 C   0  0  0  0  0  0  0  0  0  0  0  0
   -2.8579   -4.9500    0.0000 F   0  0  0  0  0  0  0  0  0  0  0  0
   -1.4289   -4.9500    0.0000 C   0  0  0  0  0  0  0  0  0  0  0  0
   -1.4289   -4.1250    0.0000 H   0  0  0  0  0  0  0  0  0  0  0  0
    0.7145   -2.8875    0.0000 C   0  0  0  0  0  0  0  0  0  0  0  0
    0.0000   -2.4750    0.0000 C   0  0  0  0  0  0  0  0  0  0  0  0
    0.0000   -1.6500    0.0000 O   0  0  0  0  0  0  0  0  0  0  0  0
   -0.7145   -2.8875    0.0000 N   0  0  0  0  0  0  0  0  0  0  0  0
   -1.1678   -2.1982    0.0000 H   0  0  0  0  0  0  0  0  0  0  0  0
   -1.5381   -2.8395    0.0000 H   0  0  0  0  0  0  0  0  0  0  0  0
  1  2  1  0  0  0  0
  2  3  4  0  0  0  0
  3  4  4  0  0  0  0
  4  5  1  0  0  0  0
  5  6  1  0  0  0  0
  5  7  1  0  0  0  0
  7  8  4  0  0  0  0
  8  9  1  0  0  0  0
  8 10  4  0  0  0  0
 10 11  1  0  0  0  0
 10 12  4  0  0  0  0
 12 13  1  0  0  0  0
 13 14  1  0  0  0  0
 14 15  1  0  0  0  0
 14 16  1  0  0  0  0
 14 17  1  0  0  0  0
 17 18  1  0  0  0  0
 17 19  1  0  0  0  0
 17 20  1  0  0  0  0
 20 21  1  0  0  0  0
 21 22  1  0  0  0  0
 21 23  1  0  0  0  0
 21 24  1  0  0  0  0
 13 24  1  0  0  0  0
 24 25  1  0  0  0  0
 24 26  1  0  0  0  0
 12 27  4  0  0  0  0
 27 28  1  0  0  0  0
 27 29  4  0  0  0  0
  7 29  4  0  0  0  0
 29 30  1  0  0  0  0
  4 31  4  0  0  0  0
 31 32  4  0  0  0  0
 32 33  1  0  0  0  0
 33 34  1  0  0  0  0
 33 35  1  0  0  0  0
 35 36  1  0  0  0  0
 35 37  1  0  0  0  0
 35 38  1  0  0  0  0
 38 39  4  0  0  0  0
 39 40  1  0  0  0  0
 39 41  4  0  0  0  0
 41 42  1  0  0  0  0
 41 43  4  0  0  0  0
 43 44  1  0  0  0  0
 43 45  4  0  0  0  0
 45 46  1  0  0  0  0
 45 47  4  0  0  0  0
 38 47  4  0  0  0  0
 47 48  1  0  0  0  0
 32 49  4  0  0  0  0
  2 49  4  0  0  0  0
 49 50  1  0  0  0  0
 50 51  2  0  0  0  0
 50 52  1  0  0  0  0
 52 53  1  0  0  0  0
 52 54  1  0  0  0  0
M  END
> <pActivity>
8.744727494896694

$$$$
CHEMBL374380
  Mrv2316 04152410472D          

 48 50  0  0  0  0            999 V2000
    4.2868   -4.9500    0.0000 H   0  0  0  0  0  0  0  0  0  0  0  0
    3.5724   -5.3625    0.0000 O   0  0  0  0  0  0  0  0  0  0  0  0
    3.5724   -6.1875    0.0000 C   0  0  0  0  0  0  0  0  0  0  0  0
    4.2868   -6.6000    0.0000 C   0  0  0  0  0  0  0  0  0  0  0  0
    5.0013   -6.1875    0.0000 H   0  0  0  0  0  0  0  0  0  0  0  0
    4.2868   -7.4250    0.0000 C   0  0  0  0  0  0  0  0  0  0  0  0
    5.0013   -7.8375    0.0000 H   0  0  0  0  0  0  0  0  0  0  0  0
    3.5724   -7.8375    0.0000 C   0  0  0  0  0  0  0  0  0  0  0  0
    3.5724   -8.6625    0.0000 C   0  0  0  0  0  0  0  0  0  0  0  0
    2.7488   -8.7105    0.0000 H   0  0  0  0  0  0  0  0  0  0  0  0
    3.1190   -9.3518    0.0000 H   0  0  0  0  0  0  0  0  0  0  0  0
    4.2868   -9.0750    0.0000 C   0  0  0  0  0  0  0  0  0  0  0  0
    5.1104   -9.0270    0.0000 H   0  0  0  0  0  0  0  0  0  0  0  0
    4.7402   -8.3857    0.0000 H   0  0  0  0  0  0  0  0  0  0  0  0
    4.2868   -9.9000    0.0000 N   0  0  0  0  0  0  0  0  0  0  0  0
    3.5724  -10.3125    0.0000 H   0  0  0  0  0  0  0  0  0  0  0  0
    5.0013  -10.3125    0.0000 C   0  0  0  0  0  0  0  0  0  0  0  0
    5.7158   -9.9000    0.0000 N   0  0  0  0  0  0  0  0  0  0  0  0
    6.4302  -10.3125    0.0000 C   0  0  0  0  0  0  0  0  0  0  0  0
    7.1447   -9.9000    0.0000 H   0  0  0  0  0  0  0  0  0  0  0  0
    6.4302  -11.1375    0.0000 C   0  0  0  0  0  0  0  0  0  0  0  0
    7.1447  -11.5500    0.0000 C   0  0  0  0  0  0  0  0  0  0  0  0
    7.1447  -12.3750    0.0000 O   0  0  0  0  0  0  0  0  0  0  0  0
    7.8592  -11.1375    0.0000 N   0  0  0  0  0  0  0  0  0  0  0  0
    8.5737  -11.5500    0.0000 H   0  0  0  0  0  0  0  0  0  0  0  0
    7.8592  -10.3125    0.0000 H   0  0  0  0  0  0  0  0  0  0  0  0
    5.7158  -11.5500    0.0000 C   0  0  0  0  0  0  0  0  0  0  0  0
    5.7158  -12.3750    0.0000 N   0  0  0  0  0  0  0  0  0  0  0  0
    5.0013  -12.7875    0.0000 H   0  0  0  0  0  0  0  0  0  0  0  0
    6.4302  -12.7875    0.0000 C   0  0  0  0  0  0  0  0  0  0  0  0
    6.4302  -11.9625    0.0000 H   0  0  0  0  0  0  0  0  0  0  0  0
    7.1447  -13.2000    0.0000 H   0  0  0  0  0  0  0  0  0  0  0  0
    6.4302  -13.6125    0.0000 C   0  0  0  0  0  0  0  0  0  0  0  0
    7.1447  -14.0250    0.0000 C   0  0  0  0  0  0  0  0  0  0  0  0
    7.9697  -14.0250    0.0000 H   0  0  0  0  0  0  0  0  0  0  0  0
    7.1447  -14.8500    0.0000 C   0  0  0  0  0  0  0  0  0  0  0  0
    7.8592  -15.2625    0.0000 H   0  0  0  0  0  0  0  0  0  0  0  0
    6.4302  -15.2625    0.0000 C   0  0  0  0  0  0  0  0  0  0  0  0
    6.4302  -16.0875    0.0000 H   0  0  0  0  0  0  0  0  0  0  0  0
    5.7158  -14.8500    0.0000 C   0  0  0  0  0  0  0  0  0  0  0  0
    5.0013  -15.2625    0.0000 H   0  0  0  0  0  0  0  0  0  0  0  0
    5.7158  -14.0250    0.0000 C   0  0  0  0  0  0  0  0  0  0  0  0
    5.0013  -13.6125    0.0000 H   0  0  0  0  0  0  0  0  0  0  0  0
    5.0013  -11.1375    0.0000 N   0  0  0  0  0  0  0  0  0  0  0  0
    2.8579   -7.4250    0.0000 C   0  0  0  0  0  0  0  0  0  0  0  0
    2.1434   -7.8375    0.0000 H   0  0  0  0  0  0  0  0  0  0  0  0
    2.8579   -6.6000    0.0000 C   0  0  0  0  0  0  0  0  0  0  0  0
    2.1434   -6.1875    0.0000 H   0  0  0  0  0  0  0  0  0  0  0  0
  1  2  1  0  0  0  0
  2  3  1  0  0  0  0
  3  4  4  0  0  0  0
  4  5  1  0  0  0  0
  4  6  4  0  0  0  0
  6  7  1  0  0  0  0
  6  8  4  0  0  0  0
  8  9  1  0  0  0  0
  9 10  1  0  0  0  0
  9 11  1  0  0  0  0
  9 12  1  0  0  0  0
 12 13  1  0  0  0  0
 12 14  1  0  0  0  0
 12 15  1  0  0  0  0
 15 16  1  0  0  0  0
 15 17  1  0  0  0  0
 17 18  4  0  0  0  0
 18 19  4  0  0  0  0
 19 20  1  0  0  0  0
 19 21  4  0  0  0  0
 21 22  1  0  0  0  0
 22 23  2  0  0  0  0
 22 24  1  0  0  0  0
 24 25  1  0  0  0  0
 24 26  1  0  0  0  0
 21 27  4  0  0  0  0
 27 28  1  0  0  0  0
 28 29  1  0  0  0  0
 28 30  1  0  0  0  0
 30 31  1  0  0  0  0
 30 32  1  0  0  0  0
 30 33  1  0  0  0  0
 33 34  4  0  0  0  0
 34 35  1  0  0  0  0
 34 36  4  0  0  0  0
 36 37  1  0  0  0  0
 36 38  4  0  0  0  0
 38 39  1  0  0  0  0
 38 40  4  0  0  0  0
 40 41  1  0  0  0  0
 40 42  4  0  0  0  0
 33 42  4  0  0  0  0
 42 43  1  0  0  0  0
 27 44  4  0  0  0  0
 17 44  4  0  0  0  0
  8 45  4  0  0  0  0
 45 46  1  0  0  0  0
 45 47  4  0  0  0  0
  3 47  4  0  0  0  0
 47 48  1  0  0  0  0
M  END
> <pActivity>
7.05551732784983

$$$$
CHEMBL513401
  Mrv2316 04152410472D          

 59 62  0  0  0  0            999 V2000
    1.4289   -1.6500    0.0000 H   0  0  0  0  0  0  0  0  0  0  0  0
    1.4289   -2.4750    0.0000 C   0  0  0  0  0  0  0  0  0  0  0  0
    2.1434   -2.8875    0.0000 N   0  0  0  0  0  0  0  0  0  0  0  0
    2.1434   -3.7125    0.0000 C   0  0  0  0  0  0  0  0  0  0  0  0
    2.8579   -4.1250    0.0000 N   0  0  0  0  0  0  0  0  0  0  0  0
    2.8579   -4.9500    0.0000 H   0  0  0  0  0  0  0  0  0  0  0  0
    3.5724   -3.7125    0.0000 C   0  0  0  0  0  0  0  0  0  0  0  0
    3.5724   -2.8875    0.0000 C   0  0  0  0  0  0  0  0  0  0  0  0
    2.8579   -2.4750    0.0000 H   0  0  0  0  0  0  0  0  0  0  0  0
    4.2868   -2.4750    0.0000 C   0  0  0  0  0  0  0  0  0  0  0  0
    4.2868   -1.6500    0.0000 H   0  0  0  0  0  0  0  0  0  0  0  0
    5.0013   -2.8875    0.0000 C   0  0  0  0  0  0  0  0  0  0  0  0
    5.7158   -2.4750    0.0000 C   0  0  0  0  0  0  0  0  0  0  0  0
    5.7158   -3.3000    0.0000 H   0  0  0  0  0  0  0  0  0  0  0  0
    5.7158   -1.6500    0.0000 C   0  0  0  0  0  0  0  0  0  0  0  0
    5.2624   -0.9607    0.0000 H   0  0  0  0  0  0  0  0  0  0  0  0
    4.8922   -1.6020    0.0000 H   0  0  0  0  0  0  0  0  0  0  0  0
    6.4302   -1.2375    0.0000 C   0  0  0  0  0  0  0  0  0  0  0  0
    6.8005   -0.5003    0.0000 H   0  0  0  0  0  0  0  0  0  0  0  0
    6.0600   -0.5003    0.0000 H   0  0  0  0  0  0  0  0  0  0  0  0
    7.1447   -1.6500    0.0000 N   0  0  0  0  0  0  0  0  0  0  0  0
    7.8592   -1.2375    0.0000 C   0  0  0  0  0  0  0  0  0  0  0  0
    8.2717   -1.9520    0.0000 H   0  0  0  0  0  0  0  0  0  0  0  0
    8.5737   -0.8250    0.0000 H   0  0  0  0  0  0  0  0  0  0  0  0
    7.4467   -0.5230    0.0000 H   0  0  0  0  0  0  0  0  0  0  0  0
    7.1447   -2.4750    0.0000 C   0  0  0  0  0  0  0  0  0  0  0  0
    7.5981   -3.1643    0.0000 H   0  0  0  0  0  0  0  0  0  0  0  0
    7.9683   -2.5230    0.0000 H   0  0  0  0  0  0  0  0  0  0  0  0
    6.4302   -2.8875    0.0000 C   0  0  0  0  0  0  0  0  0  0  0  0
    6.5735   -3.7000    0.0000 H   0  0  0  0  0  0  0  0  0  0  0  0
    7.0622   -3.4178    0.0000 H   0  0  0  0  0  0  0  0  0  0  0  0
    5.0013   -3.7125    0.0000 C   0  0  0  0  0  0  0  0  0  0  0  0
    5.4138   -4.4270    0.0000 H   0  0  0  0  0  0  0  0  0  0  0  0
    4.2868   -4.1250    0.0000 C   0  0  0  0  0  0  0  0  0  0  0  0
    4.2868   -4.9500    0.0000 H   0  0  0  0  0  0  0  0  0  0  0  0
    1.4289   -4.1250    0.0000 N   0  0  0  0  0  0  0  0  0  0  0  0
    0.7145   -3.7125    0.0000 C   0  0  0  0  0  0  0  0  0  0  0  0
    0.0000   -4.1250    0.0000 N   0  0  0  0  0  0  0  0  0  0  0  0
   -0.7145   -3.7125    0.0000 H   0  0  0  0  0  0  0  0  0  0  0  0
    0.0000   -4.9500    0.0000 C   0  0  0  0  0  0  0  0  0  0  0  0
    0.4533   -5.6393    0.0000 H   0  0  0  0  0  0  0  0  0  0  0  0
    0.8236   -4.9980    0.0000 H   0  0  0  0  0  0  0  0  0  0  0  0
   -0.7145   -5.3625    0.0000 C   0  0  0  0  0  0  0  0  0  0  0  0
   -0.7145   -6.1875    0.0000 C   0  0  0  0  0  0  0  0  0  0  0  0
   -0.0000   -6.6000    0.0000 H   0  0  0  0  0  0  0  0  0  0  0  0
   -1.4289   -6.6000    0.0000 C   0  0  0  0  0  0  0  0  0  0  0  0
   -1.4289   -7.4250    0.0000 H   0  0  0  0  0  0  0  0  0  0  0  0
   -2.1434   -6.1875    0.0000 C   0  0  0  0  0  0  0  0  0  0  0  0
   -2.8579   -6.6000    0.0000 H   0  0  0  0  0  0  0  0  0  0  0  0
   -2.1434   -5.3625    0.0000 C   0  0  0  0  0  0  0  0  0  0  0  0
   -2.8579   -4.9500    0.0000 H   0  0  0  0  0  0  0  0  0  0  0  0
   -1.4289   -4.9500    0.0000 C   0  0  0  0  0  0  0  0  0  0  0  0
   -1.4289   -4.1250    0.0000 H   0  0  0  0  0  0  0  0  0  0  0  0
    0.7145   -2.8875    0.0000 C   0  0  0  0  0  0  0  0  0  0  0  0
    0.0000   -2.4750    0.0000 C   0  0  0  0  0  0  0  0  0  0  0  0
    0.0000   -1.6500    0.0000 O   0  0  0  0  0  0  0  0  0  0  0  0
   -0.7145   -2.8875    0.0000 N   0  0  0  0  0  0  0  0  0  0  0  0
   -1.1678   -2.1982    0.0000 H   0  0  0  0  0  0  0  0  0  0  0  0
   -1.5381   -2.8395    0.0000 H   0  0  0  0  0  0  0  0  0  0  0  0
  1  2  1  0  0  0  0
  2  3  4  0  0  0  0
  3  4  4  0  0  0  0
  4  5  1  0  0  0  0
  5  6  1  0  0  0  0
  5  7  1  0  0  0  0
  7  8  4  0  0  0  0
  8  9  1  0  0  0  0
  8 10  4  0  0  0  0
 10 11  1  0  0  0  0
 10 12  4  0  0  0  0
 12 13  1  0  0  0  0
 13 14  1  0  0  0  0
 13 15  1  0  0  0  0
 15 16  1  0  0  0  0
 15 17  1  0  0  0  0
 15 18  1  0  0  0  0
 18 19  1  0  0  0  0
 18 20  1  0  0  0  0
 18 21  1  0  0  0  0
 21 22  1  0  0  0  0
 22 23  1  0  0  0  0
 22 24  1  0  0  0  0
 22 25  1  0  0  0  0
 21 26  1  0  0  0  0
 26 27  1  0  0  0  0
 26 28  1  0  0  0  0
 26 29  1  0  0  0  0
 13 29  1  0  0  0  0
 29 30  1  0  0  0  0
 29 31  1  0  0  0  0
 12 32  4  0  0  0  0
 32 33  1  0  0  0  0
 32 34  4  0  0  0  0
  7 34  4  0  0  0  0
 34 35  1  0  0  0  0
  4 36  4  0  0  0  0
 36 37  4  0  0  0  0
 37 38  1  0  0  0  0
 38 39  1  0  0  0  0
 38 40  1  0  0  0  0
 40 41  1  0  0  0  0
 40 42  1  0  0  0  0
 40 43  1  0  0  0  0
 43 44  4  0  0  0  0
 44 45  1  0  0  0  0
 44 46  4  0  0  0  0
 46 47  1  0  0  0  0
 46 48  4  0  0  0  0
 48 49  1  0  0  0  0
 48 50  4  0  0  0  0
 50 51  1  0  0  0  0
 50 52  4  0  0  0  0
 43 52  4  0  0  0  0
 52 53  1  0  0  0  0
 37 54  4  0  0  0  0
  2 54  4  0  0  0  0
 54 55  1  0  0  0  0
 55 56  2  0  0  0  0
 55 57  1  0  0  0  0
 57 58  1  0  0  0  0
 57 59  1  0  0  0  0
M  END
> <pActivity>
7.769551078621725

$$$$
CHEMBL471114
  Mrv2316 04152410472D          

 54 57  0  0  0  0            999 V2000
    1.4289   -1.6500    0.0000 H   0  0  0  0  0  0  0  0  0  0  0  0
    1.4289   -2.4750    0.0000 C   0  0  0  0  0  0  0  0  0  0  0  0
    2.1434   -2.8875    0.0000 N   0  0  0  0  0  0  0  0  0  0  0  0
    2.1434   -3.7125    0.0000 C   0  0  0  0  0  0  0  0  0  0  0  0
    2.8579   -4.1250    0.0000 N   0  0  0  0  0  0  0  0  0  0  0  0
    2.8579   -4.9500    0.0000 H   0  0  0  0  0  0  0  0  0  0  0  0
    3.5724   -3.7125    0.0000 C   0  0  0  0  0  0  0  0  0  0  0  0
    3.5724   -2.8875    0.0000 C   0  0  0  0  0  0  0  0  0  0  0  0
    2.8579   -2.4750    0.0000 H   0  0  0  0  0  0  0  0  0  0  0  0
    4.2868   -2.4750    0.0000 C   0  0  0  0  0  0  0  0  0  0  0  0
    4.2868   -1.6500    0.0000 H   0  0  0  0  0  0  0  0  0  0  0  0
    5.0013   -2.8875    0.0000 C   0  0  0  0  0  0  0  0  0  0  0  0
    5.7158   -2.4750    0.0000 N   0  0  0  0  0  0  0  0  0  0  0  0
    5.7158   -1.6500    0.0000 C   0  0  0  0  0  0  0  0  0  0  0  0
    5.2624   -0.9607    0.0000 H   0  0  0  0  0  0  0  0  0  0  0  0
    4.8922   -1.6020    0.0000 H   0  0  0  0  0  0  0  0  0  0  0  0
    6.4302   -1.2375    0.0000 C   0  0  0  0  0  0  0  0  0  0  0  0
    6.8005   -0.5003    0.0000 H   0  0  0  0  0  0  0  0  0  0  0  0
    6.0600   -0.5003    0.0000 H   0  0  0  0  0  0  0  0  0  0  0  0
    7.1447   -1.6500    0.0000 O   0  0  0  0  0  0  0  0  0  0  0  0
    7.1447   -2.4750    0.0000 C   0  0  0  0  0  0  0  0  0  0  0  0
    7.5981   -3.1643    0.0000 H   0  0  0  0  0  0  0  0  0  0  0  0
    7.9683   -2.5230    0.0000 H   0  0  0  0  0  0  0  0  0  0  0  0
    6.4302   -2.8875    0.0000 C   0  0  0  0  0  0  0  0  0  0  0  0
    6.0600   -3.6247    0.0000 H   0  0  0  0  0  0  0  0  0  0  0  0
    6.8005   -3.6247    0.0000 H   0  0  0  0  0  0  0  0  0  0  0  0
    5.0013   -3.7125    0.0000 C   0  0  0  0  0  0  0  0  0  0  0  0
    5.7158   -4.1250    0.0000 H   0  0  0  0  0  0  0  0  0  0  0  0
    4.2868   -4.1250    0.0000 C   0  0  0  0  0  0  0  0  0  0  0  0
    4.2868   -4.9500    0.0000 H   0  0  0  0  0  0  0  0  0  0  0  0
    1.4289   -4.1250    0.0000 N   0  0  0  0  0  0  0  0  0  0  0  0
    0.7145   -3.7125    0.0000 C   0  0  0  0  0  0  0  0  0  0  0  0
    0.0000   -4.1250    0.0000 N   0  0  0  0  0  0  0  0  0  0  0  0
   -0.7145   -3.7125    0.0000 H   0  0  0  0  0  0  0  0  0  0  0  0
    0.0000   -4.9500    0.0000 C   0  0  0  0  0  0  0  0  0  0  0  0
    0.4533   -5.6393    0.0000 H   0  0  0  0  0  0  0  0  0  0  0  0
    0.8236   -4.9980    0.0000 H   0  0  0  0  0  0  0  0  0  0  0  0
   -0.7145   -5.3625    0.0000 C   0  0  0  0  0  0  0  0  0  0  0  0
   -0.7145   -6.1875    0.0000 C   0  0  0  0  0  0  0  0  0  0  0  0
   -0.0000   -6.6000    0.0000 H   0  0  0  0  0  0  0  0  0  0  0  0
   -1.4289   -6.6000    0.0000 C   0  0  0  0  0  0  0  0  0  0  0  0
   -1.4289   -7.4250    0.0000 H   0  0  0  0  0  0  0  0  0  0  0  0
   -2.1434   -6.1875    0.0000 C   0  0  0  0  0  0  0  0  0  0  0  0
   -2.8579   -6.6000    0.0000 H   0  0  0  0  0  0  0  0  0  0  0  0
   -2.1434   -5.3625    0.0000 C   0  0  0  0  0  0  0  0  0  0  0  0
   -2.8579   -4.9500    0.0000 H   0  0  0  0  0  0  0  0  0  0  0  0
   -1.4289   -4.9500    0.0000 C   0  0  0  0  0  0  0  0  0  0  0  0
   -1.4289   -4.1250    0.0000 H   0  0  0  0  0  0  0  0  0  0  0  0
    0.7145   -2.8875    0.0000 C   0  0  0  0  0  0  0  0  0  0  0  0
    0.0000   -2.4750    0.0000 C   0  0  0  0  0  0  0  0  0  0  0  0
    0.0000   -1.6500    0.0000 O   0  0  0  0  0  0  0  0  0  0  0  0
   -0.7145   -2.8875    0.0000 N   0  0  0  0  0  0  0  0  0  0  0  0
   -1.1678   -2.1982    0.0000 H   0  0  0  0  0  0  0  0  0  0  0  0
   -1.5381   -2.8395    0.0000 H   0  0  0  0  0  0  0  0  0  0  0  0
  1  2  1  0  0  0  0
  2  3  4  0  0  0  0
  3  4  4  0  0  0  0
  4  5  1  0  0  0  0
  5  6  1  0  0  0  0
  5  7  1  0  0  0  0
  7  8  4  0  0  0  0
  8  9  1  0  0  0  0
  8 10  4  0  0  0  0
 10 11  1  0  0  0  0
 10 12  4  0  0  0  0
 12 13  1  0  0  0  0
 13 14  1  0  0  0  0
 14 15  1  0  0  0  0
 14 16  1  0  0  0  0
 14 17  1  0  0  0  0
 17 18  1  0  0  0  0
 17 19  1  0  0  0  0
 17 20  1  0  0  0  0
 20 21  1  0  0  0  0
 21 22  1  0  0  0  0
 21 23  1  0  0  0  0
 21 24  1  0  0  0  0
 13 24  1  0  0  0  0
 24 25  1  0  0  0  0
 24 26  1  0  0  0  0
 12 27  4  0  0  0  0
 27 28  1  0  0  0  0
 27 29  4  0  0  0  0
  7 29  4  0  0  0  0
 29 30  1  0  0  0  0
  4 31  4  0  0  0  0
 31 32  4  0  0  0  0
 32 33  1  0  0  0  0
 33 34  1  0  0  0  0
 33 35  1  0  0  0  0
 35 36  1  0  0  0  0
 35 37  1  0  0  0  0
 35 38  1  0  0  0  0
 38 39  4  0  0  0  0
 39 40  1  0  0  0  0
 39 41  4  0  0  0  0
 41 42  1  0  0  0  0
 41 43  4  0  0  0  0
 43 44  1  0  0  0  0
 43 45  4  0  0  0  0
 45 46  1  0  0  0  0
 45 47  4  0  0  0  0
 38 47  4  0  0  0  0
 47 48  1  0  0  0  0
 32 49  4  0  0  0  0
  2 49  4  0  0  0  0
 49 50  1  0  0  0  0
 50 51  2  0  0  0  0
 50 52  1  0  0  0  0
 52 53  1  0  0  0  0
 52 54  1  0  0  0  0
M  END
> <pActivity>
8.187086643357144

$$$$
CHEMBL471113
  Mrv2316 04152410472D          

 55 58  0  0  0  0            999 V2000
    1.4289   -1.6500    0.0000 H   0  0  0  0  0  0  0  0  0  0  0  0
    1.4289   -2.4750    0.0000 C   0  0  0  0  0  0  0  0  0  0  0  0
    2.1434   -2.8875    0.0000 N   0  0  0  0  0  0  0  0  0  0  0  0
    2.1434   -3.7125    0.0000 C   0  0  0  0  0  0  0  0  0  0  0  0
    2.8579   -4.1250    0.0000 N   0  0  0  0  0  0  0  0  0  0  0  0
    2.8579   -4.9500    0.0000 H   0  0  0  0  0  0  0  0  0  0  0  0
    3.5724   -3.7125    0.0000 C   0  0  0  0  0  0  0  0  0  0  0  0
    3.5724   -2.8875    0.0000 C   0  0  0  0  0  0  0  0  0  0  0  0
    2.8579   -2.4750    0.0000 H   0  0  0  0  0  0  0  0  0  0  0  0
    4.2868   -2.4750    0.0000 C   0  0  0  0  0  0  0  0  0  0  0  0
    4.2868   -1.6500    0.0000 H   0  0  0  0  0  0  0  0  0  0  0  0
    5.0013   -2.8875    0.0000 C   0  0  0  0  0  0  0  0  0  0  0  0
    5.7158   -2.4750    0.0000 N   0  0  0  0  0  0  0  0  0  0  0  0
    5.7158   -1.6500    0.0000 C   0  0  0  0  0  0  0  0  0  0  0  0
    5.2624   -0.9607    0.0000 H   0  0  0  0  0  0  0  0  0  0  0  0
    4.8922   -1.6020    0.0000 H   0  0  0  0  0  0  0  0  0  0  0  0
    6.4302   -1.2375    0.0000 C   0  0  0  0  0  0  0  0  0  0  0  0
    6.8005   -0.5003    0.0000 H   0  0  0  0  0  0  0  0  0  0  0  0
    6.0600   -0.5003    0.0000 H   0  0  0  0  0  0  0  0  0  0  0  0
    7.1447   -1.6500    0.0000 N   0  0  0  0  0  0  0  0  0  0  0  0
    7.8592   -1.2375    0.0000 H   0  0  0  0  0  0  0  0  0  0  0  0
    7.1447   -2.4750    0.0000 C   0  0  0  0  0  0  0  0  0  0  0  0
    7.5981   -3.1643    0.0000 H   0  0  0  0  0  0  0  0  0  0  0  0
    7.9683   -2.5230    0.0000 H   0  0  0  0  0  0  0  0  0  0  0  0
    6.4302   -2.8875    0.0000 C   0  0  0  0  0  0  0  0  0  0  0  0
    6.0600   -3.6247    0.0000 H   0  0  0  0  0  0  0  0  0  0  0  0
    6.8005   -3.6247    0.0000 H   0  0  0  0  0  0  0  0  0  0  0  0
    5.0013   -3.7125    0.0000 C   0  0  0  0  0  0  0  0  0  0  0  0
    5.7158   -4.1250    0.0000 H   0  0  0  0  0  0  0  0  0  0  0  0
    4.2868   -4.1250    0.0000 C   0  0  0  0  0  0  0  0  0  0  0  0
    4.2868   -4.9500    0.0000 H   0  0  0  0  0  0  0  0  0  0  0  0
    1.4289   -4.1250    0.0000 N   0  0  0  0  0  0  0  0  0  0  0  0
    0.7145   -3.7125    0.0000 C   0  0  0  0  0  0  0  0  0  0  0  0
    0.0000   -4.1250    0.0000 N   0  0  0  0  0  0  0  0  0  0  0  0
   -0.7145   -3.7125    0.0000 H   0  0  0  0  0  0  0  0  0  0  0  0
    0.0000   -4.9500    0.0000 C   0  0  0  0  0  0  0  0  0  0  0  0
    0.4533   -5.6393    0.0000 H   0  0  0  0  0  0  0  0  0  0  0  0
    0.8236   -4.9980    0.0000 H   0  0  0  0  0  0  0  0  0  0  0  0
   -0.7145   -5.3625    0.0000 C   0  0  0  0  0  0  0  0  0  0  0  0
   -0.7145   -6.1875    0.0000 C   0  0  0  0  0  0  0  0  0  0  0  0
   -0.0000   -6.6000    0.0000 H   0  0  0  0  0  0  0  0  0  0  0  0
   -1.4289   -6.6000    0.0000 C   0  0  0  0  0  0  0  0  0  0  0  0
   -1.4289   -7.4250    0.0000 H   0  0  0  0  0  0  0  0  0  0  0  0
   -2.1434   -6.1875    0.0000 C   0  0  0  0  0  0  0  0  0  0  0  0
   -2.8579   -6.6000    0.0000 H   0  0  0  0  0  0  0  0  0  0  0  0
   -2.1434   -5.3625    0.0000 C   0  0  0  0  0  0  0  0  0  0  0  0
   -2.8579   -4.9500    0.0000 H   0  0  0  0  0  0  0  0  0  0  0  0
   -1.4289   -4.9500    0.0000 C   0  0  0  0  0  0  0  0  0  0  0  0
   -1.4289   -4.1250    0.0000 H   0  0  0  0  0  0  0  0  0  0  0  0
    0.7145   -2.8875    0.0000 C   0  0  0  0  0  0  0  0  0  0  0  0
    0.0000   -2.4750    0.0000 C   0  0  0  0  0  0  0  0  0  0  0  0
    0.0000   -1.6500    0.0000 O   0  0  0  0  0  0  0  0  0  0  0  0
   -0.7145   -2.8875    0.0000 N   0  0  0  0  0  0  0  0  0  0  0  0
   -1.1678   -2.1982    0.0000 H   0  0  0  0  0  0  0  0  0  0  0  0
   -1.5381   -2.8395    0.0000 H   0  0  0  0  0  0  0  0  0  0  0  0
  1  2  1  0  0  0  0
  2  3  4  0  0  0  0
  3  4  4  0  0  0  0
  4  5  1  0  0  0  0
  5  6  1  0  0  0  0
  5  7  1  0  0  0  0
  7  8  4  0  0  0  0
  8  9  1  0  0  0  0
  8 10  4  0  0  0  0
 10 11  1  0  0  0  0
 10 12  4  0  0  0  0
 12 13  1  0  0  0  0
 13 14  1  0  0  0  0
 14 15  1  0  0  0  0
 14 16  1  0  0  0  0
 14 17  1  0  0  0  0
 17 18  1  0  0  0  0
 17 19  1  0  0  0  0
 17 20  1  0  0  0  0
 20 21  1  0  0  0  0
 20 22  1  0  0  0  0
 22 23  1  0  0  0  0
 22 24  1  0  0  0  0
 22 25  1  0  0  0  0
 13 25  1  0  0  0  0
 25 26  1  0  0  0  0
 25 27  1  0  0  0  0
 12 28  4  0  0  0  0
 28 29  1  0  0  0  0
 28 30  4  0  0  0  0
  7 30  4  0  0  0  0
 30 31  1  0  0  0  0
  4 32  4  0  0  0  0
 32 33  4  0  0  0  0
 33 34  1  0  0  0  0
 34 35  1  0  0  0  0
 34 36  1  0  0  0  0
 36 37  1  0  0  0  0
 36 38  1  0  0  0  0
 36 39  1  0  0  0  0
 39 40  4  0  0  0  0
 40 41  1  0  0  0  0
 40 42  4  0  0  0  0
 42 43  1  0  0  0  0
 42 44  4  0  0  0  0
 44 45  1  0  0  0  0
 44 46  4  0  0  0  0
 46 47  1  0  0  0  0
 46 48  4  0  0  0  0
 39 48  4  0  0  0  0
 48 49  1  0  0  0  0
 33 50  4  0  0  0  0
  2 50  4  0  0  0  0
 50 51  1  0  0  0  0
 51 52  2  0  0  0  0
 51 53  1  0  0  0  0
 53 54  1  0  0  0  0
 53 55  1  0  0  0  0
M  END
> <pActivity>
8.154901959985743

$$$$
CHEMBL470949
  Mrv2316 04152410472D          

 58 61  0  0  0  0            999 V2000
    1.4289   -1.6500    0.0000 H   0  0  0  0  0  0  0  0  0  0  0  0
    1.4289   -2.4750    0.0000 C   0  0  0  0  0  0  0  0  0  0  0  0
    2.1434   -2.8875    0.0000 N   0  0  0  0  0  0  0  0  0  0  0  0
    2.1434   -3.7125    0.0000 C   0  0  0  0  0  0  0  0  0  0  0  0
    2.8579   -4.1250    0.0000 N   0  0  0  0  0  0  0  0  0  0  0  0
    2.8579   -4.9500    0.0000 H   0  0  0  0  0  0  0  0  0  0  0  0
    3.5724   -3.7125    0.0000 C   0  0  0  0  0  0  0  0  0  0  0  0
    3.5724   -2.8875    0.0000 C   0  0  0  0  0  0  0  0  0  0  0  0
    2.8579   -2.4750    0.0000 H   0  0  0  0  0  0  0  0  0  0  0  0
    4.2868   -2.4750    0.0000 C   0  0  0  0  0  0  0  0  0  0  0  0
    4.2868   -1.6500    0.0000 H   0  0  0  0  0  0  0  0  0  0  0  0
    5.0013   -2.8875    0.0000 C   0  0  0  0  0  0  0  0  0  0  0  0
    5.7158   -2.4750    0.0000 N   0  0  0  0  0  0  0  0  0  0  0  0
    5.7158   -1.6500    0.0000 C   0  0  0  0  0  0  0  0  0  0  0  0
    5.2624   -0.9607    0.0000 H   0  0  0  0  0  0  0  0  0  0  0  0
    4.8922   -1.6020    0.0000 H   0  0  0  0  0  0  0  0  0  0  0  0
    6.4302   -1.2375    0.0000 C   0  0  0  0  0  0  0  0  0  0  0  0
    6.8005   -0.5003    0.0000 H   0  0  0  0  0  0  0  0  0  0  0  0
    6.0600   -0.5003    0.0000 H   0  0  0  0  0  0  0  0  0  0  0  0
    7.1447   -1.6500    0.0000 N   0  0  0  0  0  0  0  0  0  0  0  0
    7.8592   -1.2375    0.0000 C   0  0  0  0  0  0  0  0  0  0  0  0
    8.2717   -1.9520    0.0000 H   0  0  0  0  0  0  0  0  0  0  0  0
    8.5737   -0.8250    0.0000 H   0  0  0  0  0  0  0  0  0  0  0  0
    7.4467   -0.5230    0.0000 H   0  0  0  0  0  0  0  0  0  0  0  0
    7.1447   -2.4750    0.0000 C   0  0  0  0  0  0  0  0  0  0  0  0
    7.5981   -3.1643    0.0000 H   0  0  0  0  0  0  0  0  0  0  0  0
    7.9683   -2.5230    0.0000 H   0  0  0  0  0  0  0  0  0  0  0  0
    6.4302   -2.8875    0.0000 C   0  0  0  0  0  0  0  0  0  0  0  0
    6.0600   -3.6247    0.0000 H   0  0  0  0  0  0  0  0  0  0  0  0
    6.8005   -3.6247    0.0000 H   0  0  0  0  0  0  0  0  0  0  0  0
    5.0013   -3.7125    0.0000 C   0  0  0  0  0  0  0  0  0  0  0  0
    5.7158   -4.1250    0.0000 H   0  0  0  0  0  0  0  0  0  0  0  0
    4.2868   -4.1250    0.0000 C   0  0  0  0  0  0  0  0  0  0  0  0
    4.2868   -4.9500    0.0000 H   0  0  0  0  0  0  0  0  0  0  0  0
    1.4289   -4.1250    0.0000 N   0  0  0  0  0  0  0  0  0  0  0  0
    0.7145   -3.7125    0.0000 C   0  0  0  0  0  0  0  0  0  0  0  0
    0.0000   -4.1250    0.0000 N   0  0  0  0  0  0  0  0  0  0  0  0
   -0.7145   -3.7125    0.0000 H   0  0  0  0  0  0  0  0  0  0  0  0
    0.0000   -4.9500    0.0000 C   0  0  0  0  0  0  0  0  0  0  0  0
    0.4533   -5.6393    0.0000 H   0  0  0  0  0  0  0  0  0  0  0  0
    0.8236   -4.9980    0.0000 H   0  0  0  0  0  0  0  0  0  0  0  0
   -0.7145   -5.3625    0.0000 C   0  0  0  0  0  0  0  0  0  0  0  0
   -0.7145   -6.1875    0.0000 C   0  0  0  0  0  0  0  0  0  0  0  0
   -0.0000   -6.6000    0.0000 H   0  0  0  0  0  0  0  0  0  0  0  0
   -1.4289   -6.6000    0.0000 C   0  0  0  0  0  0  0  0  0  0  0  0
   -1.4289   -7.4250    0.0000 H   0  0  0  0  0  0  0  0  0  0  0  0
   -2.1434   -6.1875    0.0000 C   0  0  0  0  0  0  0  0  0  0  0  0
   -2.8579   -6.6000    0.0000 H   0  0  0  0  0  0  0  0  0  0  0  0
   -2.1434   -5.3625    0.0000 C   0  0  0  0  0  0  0  0  0  0  0  0
   -2.8579   -4.9500    0.0000 H   0  0  0  0  0  0  0  0  0  0  0  0
   -1.4289   -4.9500    0.0000 C   0  0  0  0  0  0  0  0  0  0  0  0
   -1.4289   -4.1250    0.0000 H   0  0  0  0  0  0  0  0  0  0  0  0
    0.7145   -2.8875    0.0000 C   0  0  0  0  0  0  0  0  0  0  0  0
    0.0000   -2.4750    0.0000 C   0  0  0  0  0  0  0  0  0  0  0  0
    0.0000   -1.6500    0.0000 O   0  0  0  0  0  0  0  0  0  0  0  0
   -0.7145   -2.8875    0.0000 N   0  0  0  0  0  0  0  0  0  0  0  0
   -1.1678   -2.1982    0.0000 H   0  0  0  0  0  0  0  0  0  0  0  0
   -1.5381   -2.8395    0.0000 H   0  0  0  0  0  0  0  0  0  0  0  0
  1  2  1  0  0  0  0
  2  3  4  0  0  0  0
  3  4  4  0  0  0  0
  4  5  1  0  0  0  0
  5  6  1  0  0  0  0
  5  7  1  0  0  0  0
  7  8  4  0  0  0  0
  8  9  1  0  0  0  0
  8 10  4  0  0  0  0
 10 11  1  0  0  0  0
 10 12  4  0  0  0  0
 12 13  1  0  0  0  0
 13 14  1  0  0  0  0
 14 15  1  0  0  0  0
 14 16  1  0  0  0  0
 14 17  1  0  0  0  0
 17 18  1  0  0  0  0
 17 19  1  0  0  0  0
 17 20  1  0  0  0  0
 20 21  1  0  0  0  0
 21 22  1  0  0  0  0
 21 23  1  0  0  0  0
 21 24  1  0  0  0  0
 20 25  1  0  0  0  0
 25 26  1  0  0  0  0
 25 27  1  0  0  0  0
 25 28  1  0  0  0  0
 13 28  1  0  0  0  0
 28 29  1  0  0  0  0
 28 30  1  0  0  0  0
 12 31  4  0  0  0  0
 31 32  1  0  0  0  0
 31 33  4  0  0  0  0
  7 33  4  0  0  0  0
 33 34  1  0  0  0  0
  4 35  4  0  0  0  0
 35 36  4  0  0  0  0
 36 37  1  0  0  0  0
 37 38  1  0  0  0  0
 37 39  1  0  0  0  0
 39 40  1  0  0  0  0
 39 41  1  0  0  0  0
 39 42  1  0  0  0  0
 42 43  4  0  0  0  0
 43 44  1  0  0  0  0
 43 45  4  0  0  0  0
 45 46  1  0  0  0  0
 45 47  4  0  0  0  0
 47 48  1  0  0  0  0
 47 49  4  0  0  0  0
 49 50  1  0  0  0  0
 49 51  4  0  0  0  0
 42 51  4  0  0  0  0
 51 52  1  0  0  0  0
 36 53  4  0  0  0  0
  2 53  4  0  0  0  0
 53 54  1  0  0  0  0
 54 55  2  0  0  0  0
 54 56  1  0  0  0  0
 56 57  1  0  0  0  0
 56 58  1  0  0  0  0
M  END
> <pActivity>
8.207608310501746

$$$$
CHEMBL461304
  Mrv2316 04152410472D          

 56 59  0  0  0  0            999 V2000
    1.4289   -1.6500    0.0000 H   0  0  0  0  0  0  0  0  0  0  0  0
    1.4289   -2.4750    0.0000 C   0  0  0  0  0  0  0  0  0  0  0  0
    2.1434   -2.8875    0.0000 N   0  0  0  0  0  0  0  0  0  0  0  0
    2.1434   -3.7125    0.0000 C   0  0  0  0  0  0  0  0  0  0  0  0
    2.8579   -4.1250    0.0000 N   0  0  0  0  0  0  0  0  0  0  0  0
    2.8579   -4.9500    0.0000 H   0  0  0  0  0  0  0  0  0  0  0  0
    3.5724   -3.7125    0.0000 C   0  0  0  0  0  0  0  0  0  0  0  0
    3.5724   -2.8875    0.0000 C   0  0  0  0  0  0  0  0  0  0  0  0
    2.8579   -2.4750    0.0000 H   0  0  0  0  0  0  0  0  0  0  0  0
    4.2868   -2.4750    0.0000 C   0  0  0  0  0  0  0  0  0  0  0  0
    4.2868   -1.6500    0.0000 H   0  0  0  0  0  0  0  0  0  0  0  0
    5.0013   -2.8875    0.0000 C   0  0  0  0  0  0  0  0  0  0  0  0
    5.7158   -2.4750    0.0000 N   0  0  0  0  0  0  0  0  0  0  0  0
    5.7158   -1.6500    0.0000 C   0  0  0  0  0  0  0  0  0  0  0  0
    5.2624   -0.9607    0.0000 H   0  0  0  0  0  0  0  0  0  0  0  0
    4.8922   -1.6020    0.0000 H   0  0  0  0  0  0  0  0  0  0  0  0
    6.4302   -1.2375    0.0000 C   0  0  0  0  0  0  0  0  0  0  0  0
    6.8005   -0.5003    0.0000 H   0  0  0  0  0  0  0  0  0  0  0  0
    6.0600   -0.5003    0.0000 H   0  0  0  0  0  0  0  0  0  0  0  0
    7.1447   -1.6500    0.0000 C   0  0  0  0  0  0  0  0  0  0  0  0
    7.9683   -1.6020    0.0000 H   0  0  0  0  0  0  0  0  0  0  0  0
    7.5981   -0.9607    0.0000 H   0  0  0  0  0  0  0  0  0  0  0  0
    7.1447   -2.4750    0.0000 C   0  0  0  0  0  0  0  0  0  0  0  0
    7.5981   -3.1643    0.0000 H   0  0  0  0  0  0  0  0  0  0  0  0
    7.9683   -2.5230    0.0000 H   0  0  0  0  0  0  0  0  0  0  0  0
    6.4302   -2.8875    0.0000 C   0  0  0  0  0  0  0  0  0  0  0  0
    6.0600   -3.6247    0.0000 H   0  0  0  0  0  0  0  0  0  0  0  0
    6.8005   -3.6247    0.0000 H   0  0  0  0  0  0  0  0  0  0  0  0
    5.0013   -3.7125    0.0000 C   0  0  0  0  0  0  0  0  0  0  0  0
    5.7158   -4.1250    0.0000 H   0  0  0  0  0  0  0  0  0  0  0  0
    4.2868   -4.1250    0.0000 C   0  0  0  0  0  0  0  0  0  0  0  0
    4.2868   -4.9500    0.0000 H   0  0  0  0  0  0  0  0  0  0  0  0
    1.4289   -4.1250    0.0000 N   0  0  0  0  0  0  0  0  0  0  0  0
    0.7145   -3.7125    0.0000 C   0  0  0  0  0  0  0  0  0  0  0  0
    0.0000   -4.1250    0.0000 N   0  0  0  0  0  0  0  0  0  0  0  0
   -0.7145   -3.7125    0.0000 H   0  0  0  0  0  0  0  0  0  0  0  0
    0.0000   -4.9500    0.0000 C   0  0  0  0  0  0  0  0  0  0  0  0
    0.4533   -5.6393    0.0000 H   0  0  0  0  0  0  0  0  0  0  0  0
    0.8236   -4.9980    0.0000 H   0  0  0  0  0  0  0  0  0  0  0  0
   -0.7145   -5.3625    0.0000 C   0  0  0  0  0  0  0  0  0  0  0  0
   -0.7145   -6.1875    0.0000 C   0  0  0  0  0  0  0  0  0  0  0  0
   -0.0000   -6.6000    0.0000 H   0  0  0  0  0  0  0  0  0  0  0  0
   -1.4289   -6.6000    0.0000 C   0  0  0  0  0  0  0  0  0  0  0  0
   -1.4289   -7.4250    0.0000 H   0  0  0  0  0  0  0  0  0  0  0  0
   -2.1434   -6.1875    0.0000 C   0  0  0  0  0  0  0  0  0  0  0  0
   -2.8579   -6.6000    0.0000 H   0  0  0  0  0  0  0  0  0  0  0  0
   -2.1434   -5.3625    0.0000 C   0  0  0  0  0  0  0  0  0  0  0  0
   -2.8579   -4.9500    0.0000 H   0  0  0  0  0  0  0  0  0  0  0  0
   -1.4289   -4.9500    0.0000 C   0  0  0  0  0  0  0  0  0  0  0  0
   -1.4289   -4.1250    0.0000 H   0  0  0  0  0  0  0  0  0  0  0  0
    0.7145   -2.8875    0.0000 C   0  0  0  0  0  0  0  0  0  0  0  0
    0.0000   -2.4750    0.0000 C   0  0  0  0  0  0  0  0  0  0  0  0
    0.0000   -1.6500    0.0000 O   0  0  0  0  0  0  0  0  0  0  0  0
   -0.7145   -2.8875    0.0000 N   0  0  0  0  0  0  0  0  0  0  0  0
   -1.1678   -2.1982    0.0000 H   0  0  0  0  0  0  0  0  0  0  0  0
   -1.5381   -2.8395    0.0000 H   0  0  0  0  0  0  0  0  0  0  0  0
  1  2  1  0  0  0  0
  2  3  4  0  0  0  0
  3  4  4  0  0  0  0
  4  5  1  0  0  0  0
  5  6  1  0  0  0  0
  5  7  1  0  0  0  0
  7  8  4  0  0  0  0
  8  9  1  0  0  0  0
  8 10  4  0  0  0  0
 10 11  1  0  0  0  0
 10 12  4  0  0  0  0
 12 13  1  0  0  0  0
 13 14  1  0  0  0  0
 14 15  1  0  0  0  0
 14 16  1  0  0  0  0
 14 17  1  0  0  0  0
 17 18  1  0  0  0  0
 17 19  1  0  0  0  0
 17 20  1  0  0  0  0
 20 21  1  0  0  0  0
 20 22  1  0  0  0  0
 20 23  1  0  0  0  0
 23 24  1  0  0  0  0
 23 25  1  0  0  0  0
 23 26  1  0  0  0  0
 13 26  1  0  0  0  0
 26 27  1  0  0  0  0
 26 28  1  0  0  0  0
 12 29  4  0  0  0  0
 29 30  1  0  0  0  0
 29 31  4  0  0  0  0
  7 31  4  0  0  0  0
 31 32  1  0  0  0  0
  4 33  4  0  0  0  0
 33 34  4  0  0  0  0
 34 35  1  0  0  0  0
 35 36  1  0  0  0  0
 35 37  1  0  0  0  0
 37 38  1  0  0  0  0
 37 39  1  0  0  0  0
 37 40  1  0  0  0  0
 40 41  4  0  0  0  0
 41 42  1  0  0  0  0
 41 43  4  0  0  0  0
 43 44  1  0  0  0  0
 43 45  4  0  0  0  0
 45 46  1  0  0  0  0
 45 47  4  0  0  0  0
 47 48  1  0  0  0  0
 47 49  4  0  0  0  0
 40 49  4  0  0  0  0
 49 50  1  0  0  0  0
 34 51  4  0  0  0  0
  2 51  4  0  0  0  0
 51 52  1  0  0  0  0
 52 53  2  0  0  0  0
 52 54  1  0  0  0  0
 54 55  1  0  0  0  0
 54 56  1  0  0  0  0
M  END
> <pActivity>
6.920818753952375

$$$$
CHEMBL517122
  Mrv2316 04152410472D          

 57 60  0  0  0  0            999 V2000
    3.5724   -6.1875    0.0000 H   0  0  0  0  0  0  0  0  0  0  0  0
    2.8579   -6.6000    0.0000 O   0  0  0  0  0  0  0  0  0  0  0  0
    2.8579   -7.4250    0.0000 C   0  0  0  0  0  0  0  0  0  0  0  0
    2.1434   -7.0125    0.0000 H   0  0  0  0  0  0  0  0  0  0  0  0
    3.5724   -7.8375    0.0000 C   0  0  0  0  0  0  0  0  0  0  0  0
    4.3960   -7.7895    0.0000 H   0  0  0  0  0  0  0  0  0  0  0  0
    4.0257   -7.1482    0.0000 H   0  0  0  0  0  0  0  0  0  0  0  0
    3.5724   -8.6625    0.0000 C   0  0  0  0  0  0  0  0  0  0  0  0
    4.0257   -9.3518    0.0000 H   0  0  0  0  0  0  0  0  0  0  0  0
    4.3960   -8.7105    0.0000 H   0  0  0  0  0  0  0  0  0  0  0  0
    2.8579   -9.0750    0.0000 N   0  0  0  0  0  0  0  0  0  0  0  0
    2.8579   -9.9000    0.0000 C   0  0  0  0  0  0  0  0  0  0  0  0
    3.5724  -10.3125    0.0000 C   0  0  0  0  0  0  0  0  0  0  0  0
    4.2868   -9.9000    0.0000 H   0  0  0  0  0  0  0  0  0  0  0  0
    3.5724  -11.1375    0.0000 C   0  0  0  0  0  0  0  0  0  0  0  0
    4.2868  -11.5500    0.0000 H   0  0  0  0  0  0  0  0  0  0  0  0
    2.8579  -11.5500    0.0000 C   0  0  0  0  0  0  0  0  0  0  0  0
    2.8579  -12.3750    0.0000 N   0  0  0  0  0  0  0  0  0  0  0  0
    2.1434  -12.7875    0.0000 H   0  0  0  0  0  0  0  0  0  0  0  0
    3.5724  -12.7875    0.0000 C   0  0  0  0  0  0  0  0  0  0  0  0
    4.2868  -12.3750    0.0000 N   0  0  0  0  0  0  0  0  0  0  0  0
    5.0013  -12.7875    0.0000 C   0  0  0  0  0  0  0  0  0  0  0  0
    5.7158  -12.3750    0.0000 H   0  0  0  0  0  0  0  0  0  0  0  0
    5.0013  -13.6125    0.0000 C   0  0  0  0  0  0  0  0  0  0  0  0
    5.7158  -14.0250    0.0000 C   0  0  0  0  0  0  0  0  0  0  0  0
    5.7158  -14.8500    0.0000 O   0  0  0  0  0  0  0  0  0  0  0  0
    6.4302  -13.6125    0.0000 N   0  0  0  0  0  0  0  0  0  0  0  0
    7.1447  -14.0250    0.0000 H   0  0  0  0  0  0  0  0  0  0  0  0
    6.4302  -12.7875    0.0000 H   0  0  0  0  0  0  0  0  0  0  0  0
    4.2868  -14.0250    0.0000 C   0  0  0  0  0  0  0  0  0  0  0  0
    4.2868  -14.8500    0.0000 N   0  0  0  0  0  0  0  0  0  0  0  0
    3.5724  -15.2625    0.0000 H   0  0  0  0  0  0  0  0  0  0  0  0
    5.0013  -15.2625    0.0000 C   0  0  0  0  0  0  0  0  0  0  0  0
    5.0013  -14.4375    0.0000 H   0  0  0  0  0  0  0  0  0  0  0  0
    5.7158  -15.6750    0.0000 H   0  0  0  0  0  0  0  0  0  0  0  0
    5.0013  -16.0875    0.0000 C   0  0  0  0  0  0  0  0  0  0  0  0
    5.7158  -16.5000    0.0000 C   0  0  0  0  0  0  0  0  0  0  0  0
    6.5408  -16.5000    0.0000 H   0  0  0  0  0  0  0  0  0  0  0  0
    5.7158  -17.3250    0.0000 C   0  0  0  0  0  0  0  0  0  0  0  0
    6.4302  -17.7375    0.0000 H   0  0  0  0  0  0  0  0  0  0  0  0
    5.0013  -17.7375    0.0000 C   0  0  0  0  0  0  0  0  0  0  0  0
    5.0013  -18.5625    0.0000 H   0  0  0  0  0  0  0  0  0  0  0  0
    4.2868  -17.3250    0.0000 C   0  0  0  0  0  0  0  0  0  0  0  0
    3.5724  -17.7375    0.0000 H   0  0  0  0  0  0  0  0  0  0  0  0
    4.2868  -16.5000    0.0000 C   0  0  0  0  0  0  0  0  0  0  0  0
    3.5724  -16.0875    0.0000 H   0  0  0  0  0  0  0  0  0  0  0  0
    3.5724  -13.6125    0.0000 N   0  0  0  0  0  0  0  0  0  0  0  0
    2.1434  -11.1375    0.0000 C   0  0  0  0  0  0  0  0  0  0  0  0
    1.4289  -11.5500    0.0000 H   0  0  0  0  0  0  0  0  0  0  0  0
    2.1434  -10.3125    0.0000 C   0  0  0  0  0  0  0  0  0  0  0  0
    1.4289   -9.9000    0.0000 H   0  0  0  0  0  0  0  0  0  0  0  0
    2.1434   -8.6625    0.0000 C   0  0  0  0  0  0  0  0  0  0  0  0
    1.3198   -8.7105    0.0000 H   0  0  0  0  0  0  0  0  0  0  0  0
    1.6901   -9.3518    0.0000 H   0  0  0  0  0  0  0  0  0  0  0  0
    2.1434   -7.8375    0.0000 C   0  0  0  0  0  0  0  0  0  0  0  0
    1.3682   -7.5553    0.0000 H   0  0  0  0  0  0  0  0  0  0  0  0
    1.3682   -8.1197    0.0000 H   0  0  0  0  0  0  0  0  0  0  0  0
  1  2  1  0  0  0  0
  2  3  1  0  0  0  0
  3  4  1  0  0  0  0
  3  5  1  0  0  0  0
  5  6  1  0  0  0  0
  5  7  1  0  0  0  0
  5  8  1  0  0  0  0
  8  9  1  0  0  0  0
  8 10  1  0  0  0  0
  8 11  1  0  0  0  0
 11 12  1  0  0  0  0
 12 13  4  0  0  0  0
 13 14  1  0  0  0  0
 13 15  4  0  0  0  0
 15 16  1  0  0  0  0
 15 17  4  0  0  0  0
 17 18  1  0  0  0  0
 18 19  1  0  0  0  0
 18 20  1  0  0  0  0
 20 21  4  0  0  0  0
 21 22  4  0  0  0  0
 22 23  1  0  0  0  0
 22 24  4  0  0  0  0
 24 25  1  0  0  0  0
 25 26  2  0  0  0  0
 25 27  1  0  0  0  0
 27 28  1  0  0  0  0
 27 29  1  0  0  0  0
 24 30  4  0  0  0  0
 30 31  1  0  0  0  0
 31 32  1  0  0  0  0
 31 33  1  0  0  0  0
 33 34  1  0  0  0  0
 33 35  1  0  0  0  0
 33 36  1  0  0  0  0
 36 37  4  0  0  0  0
 37 38  1  0  0  0  0
 37 39  4  0  0  0  0
 39 40  1  0  0  0  0
 39 41  4  0  0  0  0
 41 42  1  0  0  0  0
 41 43  4  0  0  0  0
 43 44  1  0  0  0  0
 43 45  4  0  0  0  0
 36 45  4  0  0  0  0
 45 46  1  0  0  0  0
 30 47  4  0  0  0  0
 20 47  4  0  0  0  0
 17 48  4  0  0  0  0
 48 49  1  0  0  0  0
 48 50  4  0  0  0  0
 12 50  4  0  0  0  0
 50 51  1  0  0  0  0
 11 52  1  0  0  0  0
 52 53  1  0  0  0  0
 52 54  1  0  0  0  0
 52 55  1  0  0  0  0
  3 55  1  0  0  0  0
 55 56  1  0  0  0  0
 55 57  1  0  0  0  0
M  END
> <pActivity>
7.795880017344074

$$$$
CHEMBL458325
  Mrv2316 04152410472D          

 54 57  0  0  0  0            999 V2000
    3.5724   -6.1875    0.0000 H   0  0  0  0  0  0  0  0  0  0  0  0
    2.8579   -6.6000    0.0000 O   0  0  0  0  0  0  0  0  0  0  0  0
    2.8579   -7.4250    0.0000 C   0  0  0  0  0  0  0  0  0  0  0  0
    2.1228   -7.0505    0.0000 H   0  0  0  0  0  0  0  0  0  0  0  0
    3.5253   -7.9099    0.0000 C   0  0  0  0  0  0  0  0  0  0  0  0
    4.3378   -8.0532    0.0000 H   0  0  0  0  0  0  0  0  0  0  0  0
    4.0984   -7.3165    0.0000 H   0  0  0  0  0  0  0  0  0  0  0  0
    3.2704   -8.6945    0.0000 N   0  0  0  0  0  0  0  0  0  0  0  0
    3.7553   -9.3620    0.0000 C   0  0  0  0  0  0  0  0  0  0  0  0
    4.5758   -9.2757    0.0000 C   0  0  0  0  0  0  0  0  0  0  0  0
    4.9113   -8.5221    0.0000 H   0  0  0  0  0  0  0  0  0  0  0  0
    5.0607   -9.9432    0.0000 C   0  0  0  0  0  0  0  0  0  0  0  0
    5.8812   -9.8570    0.0000 H   0  0  0  0  0  0  0  0  0  0  0  0
    4.7252  -10.6969    0.0000 C   0  0  0  0  0  0  0  0  0  0  0  0
    5.2101  -11.3643    0.0000 N   0  0  0  0  0  0  0  0  0  0  0  0
    4.8745  -12.1180    0.0000 H   0  0  0  0  0  0  0  0  0  0  0  0
    6.0306  -11.2781    0.0000 C   0  0  0  0  0  0  0  0  0  0  0  0
    6.3661  -10.5244    0.0000 N   0  0  0  0  0  0  0  0  0  0  0  0
    7.1866  -10.4382    0.0000 C   0  0  0  0  0  0  0  0  0  0  0  0
    7.5222   -9.6845    0.0000 H   0  0  0  0  0  0  0  0  0  0  0  0
    7.6715  -11.1056    0.0000 C   0  0  0  0  0  0  0  0  0  0  0  0
    8.4920  -11.0194    0.0000 C   0  0  0  0  0  0  0  0  0  0  0  0
    8.9769  -11.6868    0.0000 O   0  0  0  0  0  0  0  0  0  0  0  0
    8.8276  -10.2657    0.0000 N   0  0  0  0  0  0  0  0  0  0  0  0
    9.6480  -10.1794    0.0000 H   0  0  0  0  0  0  0  0  0  0  0  0
    8.3426   -9.5982    0.0000 H   0  0  0  0  0  0  0  0  0  0  0  0
    7.3360  -11.8593    0.0000 C   0  0  0  0  0  0  0  0  0  0  0  0
    7.8209  -12.5267    0.0000 N   0  0  0  0  0  0  0  0  0  0  0  0
    7.4853  -13.2804    0.0000 H   0  0  0  0  0  0  0  0  0  0  0  0
    8.6414  -12.4405    0.0000 C   0  0  0  0  0  0  0  0  0  0  0  0
    8.1564  -11.7730    0.0000 H   0  0  0  0  0  0  0  0  0  0  0  0
    9.4618  -12.3542    0.0000 H   0  0  0  0  0  0  0  0  0  0  0  0
    9.1263  -13.1079    0.0000 C   0  0  0  0  0  0  0  0  0  0  0  0
    9.9468  -13.0217    0.0000 C   0  0  0  0  0  0  0  0  0  0  0  0
   10.6142  -12.5368    0.0000 H   0  0  0  0  0  0  0  0  0  0  0  0
   10.4317  -13.6891    0.0000 C   0  0  0  0  0  0  0  0  0  0  0  0
   11.2522  -13.6029    0.0000 H   0  0  0  0  0  0  0  0  0  0  0  0
   10.0961  -14.4428    0.0000 C   0  0  0  0  0  0  0  0  0  0  0  0
   10.5811  -15.1102    0.0000 H   0  0  0  0  0  0  0  0  0  0  0  0
    9.2757  -14.5290    0.0000 C   0  0  0  0  0  0  0  0  0  0  0  0
    8.9401  -15.2827    0.0000 H   0  0  0  0  0  0  0  0  0  0  0  0
    8.7907  -13.8616    0.0000 C   0  0  0  0  0  0  0  0  0  0  0  0
    7.9702  -13.9478    0.0000 H   0  0  0  0  0  0  0  0  0  0  0  0
    6.5155  -11.9455    0.0000 N   0  0  0  0  0  0  0  0  0  0  0  0
    3.9047  -10.7831    0.0000 C   0  0  0  0  0  0  0  0  0  0  0  0
    3.5691  -11.5368    0.0000 H   0  0  0  0  0  0  0  0  0  0  0  0
    3.4197  -10.1157    0.0000 C   0  0  0  0  0  0  0  0  0  0  0  0
    2.5993  -10.2019    0.0000 H   0  0  0  0  0  0  0  0  0  0  0  0
    2.4454   -8.6945    0.0000 C   0  0  0  0  0  0  0  0  0  0  0  0
    1.7039   -9.0562    0.0000 H   0  0  0  0  0  0  0  0  0  0  0  0
    2.3306   -9.5115    0.0000 H   0  0  0  0  0  0  0  0  0  0  0  0
    2.1904   -7.9099    0.0000 C   0  0  0  0  0  0  0  0  0  0  0  0
    1.3786   -7.7631    0.0000 H   0  0  0  0  0  0  0  0  0  0  0  0
    1.4966   -8.3562    0.0000 H   0  0  0  0  0  0  0  0  0  0  0  0
  1  2  1  0  0  0  0
  2  3  1  0  0  0  0
  3  4  1  0  0  0  0
  3  5  1  0  0  0  0
  5  6  1  0  0  0  0
  5  7  1  0  0  0  0
  5  8  1  0  0  0  0
  8  9  1  0  0  0  0
  9 10  4  0  0  0  0
 10 11  1  0  0  0  0
 10 12  4  0  0  0  0
 12 13  1  0  0  0  0
 12 14  4  0  0  0  0
 14 15  1  0  0  0  0
 15 16  1  0  0  0  0
 15 17  1  0  0  0  0
 17 18  4  0  0  0  0
 18 19  4  0  0  0  0
 19 20  1  0  0  0  0
 19 21  4  0  0  0  0
 21 22  1  0  0  0  0
 22 23  2  0  0  0  0
 22 24  1  0  0  0  0
 24 25  1  0  0  0  0
 24 26  1  0  0  0  0
 21 27  4  0  0  0  0
 27 28  1  0  0  0  0
 28 29  1  0  0  0  0
 28 30  1  0  0  0  0
 30 31  1  0  0  0  0
 30 32  1  0  0  0  0
 30 33  1  0  0  0  0
 33 34  4  0  0  0  0
 34 35  1  0  0  0  0
 34 36  4  0  0  0  0
 36 37  1  0  0  0  0
 36 38  4  0  0  0  0
 38 39  1  0  0  0  0
 38 40  4  0  0  0  0
 40 41  1  0  0  0  0
 40 42  4  0  0  0  0
 33 42  4  0  0  0  0
 42 43  1  0  0  0  0
 27 44  4  0  0  0  0
 17 44  4  0  0  0  0
 14 45  4  0  0  0  0
 45 46  1  0  0  0  0
 45 47  4  0  0  0  0
  9 47  4  0  0  0  0
 47 48  1  0  0  0  0
  8 49  1  0  0  0  0
 49 50  1  0  0  0  0
 49 51  1  0  0  0  0
 49 52  1  0  0  0  0
  3 52  1  0  0  0  0
 52 53  1  0  0  0  0
 52 54  1  0  0  0  0
M  END
> <pActivity>
7.008773924307505

$$$$
CHEMBL461721
  Mrv2316 04152410472D          

 51 53  0  0  0  0            999 V2000
    1.4289   -1.6500    0.0000 H   0  0  0  0  0  0  0  0  0  0  0  0
    1.4289   -2.4750    0.0000 O   0  0  0  0  0  0  0  0  0  0  0  0
    2.1434   -2.8875    0.0000 C   0  0  0  0  0  0  0  0  0  0  0  0
    2.9670   -2.8395    0.0000 H   0  0  0  0  0  0  0  0  0  0  0  0
    2.5968   -2.1982    0.0000 H   0  0  0  0  0  0  0  0  0  0  0  0
    2.1434   -3.7125    0.0000 C   0  0  0  0  0  0  0  0  0  0  0  0
    1.3198   -3.7605    0.0000 H   0  0  0  0  0  0  0  0  0  0  0  0
    1.6901   -4.4018    0.0000 H   0  0  0  0  0  0  0  0  0  0  0  0
    2.8579   -4.1250    0.0000 C   0  0  0  0  0  0  0  0  0  0  0  0
    3.6815   -4.0770    0.0000 H   0  0  0  0  0  0  0  0  0  0  0  0
    3.3112   -3.4357    0.0000 H   0  0  0  0  0  0  0  0  0  0  0  0
    2.8579   -4.9500    0.0000 C   0  0  0  0  0  0  0  0  0  0  0  0
    3.5724   -5.3625    0.0000 C   0  0  0  0  0  0  0  0  0  0  0  0
    4.2868   -4.9500    0.0000 H   0  0  0  0  0  0  0  0  0  0  0  0
    3.5724   -6.1875    0.0000 C   0  0  0  0  0  0  0  0  0  0  0  0
    4.2868   -6.6000    0.0000 H   0  0  0  0  0  0  0  0  0  0  0  0
    2.8579   -6.6000    0.0000 C   0  0  0  0  0  0  0  0  0  0  0  0
    2.8579   -7.4250    0.0000 N   0  0  0  0  0  0  0  0  0  0  0  0
    2.1434   -7.8375    0.0000 H   0  0  0  0  0  0  0  0  0  0  0  0
    3.5724   -7.8375    0.0000 C   0  0  0  0  0  0  0  0  0  0  0  0
    4.2868   -7.4250    0.0000 N   0  0  0  0  0  0  0  0  0  0  0  0
    5.0013   -7.8375    0.0000 C   0  0  0  0  0  0  0  0  0  0  0  0
    5.7158   -7.4250    0.0000 H   0  0  0  0  0  0  0  0  0  0  0  0
    5.0013   -8.6625    0.0000 C   0  0  0  0  0  0  0  0  0  0  0  0
    5.7158   -9.0750    0.0000 C   0  0  0  0  0  0  0  0  0  0  0  0
    5.7158   -9.9000    0.0000 O   0  0  0  0  0  0  0  0  0  0  0  0
    6.4302   -8.6625    0.0000 N   0  0  0  0  0  0  0  0  0  0  0  0
    7.1447   -9.0750    0.0000 H   0  0  0  0  0  0  0  0  0  0  0  0
    6.4302   -7.8375    0.0000 H   0  0  0  0  0  0  0  0  0  0  0  0
    4.2868   -9.0750    0.0000 C   0  0  0  0  0  0  0  0  0  0  0  0
    4.2868   -9.9000    0.0000 N   0  0  0  0  0  0  0  0  0  0  0  0
    3.5724  -10.3125    0.0000 H   0  0  0  0  0  0  0  0  0  0  0  0
    5.0013  -10.3125    0.0000 C   0  0  0  0  0  0  0  0  0  0  0  0
    5.0013   -9.4875    0.0000 H   0  0  0  0  0  0  0  0  0  0  0  0
    5.7158  -10.7250    0.0000 H   0  0  0  0  0  0  0  0  0  0  0  0
    5.0013  -11.1375    0.0000 C   0  0  0  0  0  0  0  0  0  0  0  0
    5.7158  -11.5500    0.0000 C   0  0  0  0  0  0  0  0  0  0  0  0
    6.5408  -11.5500    0.0000 H   0  0  0  0  0  0  0  0  0  0  0  0
    5.7158  -12.3750    0.0000 C   0  0  0  0  0  0  0  0  0  0  0  0
    6.4302  -12.7875    0.0000 H   0  0  0  0  0  0  0  0  0  0  0  0
    5.0013  -12.7875    0.0000 C   0  0  0  0  0  0  0  0  0  0  0  0
    5.0013  -13.6125    0.0000 H   0  0  0  0  0  0  0  0  0  0  0  0
    4.2868  -12.3750    0.0000 C   0  0  0  0  0  0  0  0  0  0  0  0
    3.5724  -12.7875    0.0000 H   0  0  0  0  0  0  0  0  0  0  0  0
    4.2868  -11.5500    0.0000 C   0  0  0  0  0  0  0  0  0  0  0  0
    3.5724  -11.1375    0.0000 H   0  0  0  0  0  0  0  0  0  0  0  0
    3.5724   -8.6625    0.0000 N   0  0  0  0  0  0  0  0  0  0  0  0
    2.1434   -6.1875    0.0000 C   0  0  0  0  0  0  0  0  0  0  0  0
    1.4289   -6.6000    0.0000 H   0  0  0  0  0  0  0  0  0  0  0  0
    2.1434   -5.3625    0.0000 C   0  0  0  0  0  0  0  0  0  0  0  0
    1.4289   -4.9500    0.0000 H   0  0  0  0  0  0  0  0  0  0  0  0
  1  2  1  0  0  0  0
  2  3  1  0  0  0  0
  3  4  1  0  0  0  0
  3  5  1  0  0  0  0
  3  6  1  0  0  0  0
  6  7  1  0  0  0  0
  6  8  1  0  0  0  0
  6  9  1  0  0  0  0
  9 10  1  0  0  0  0
  9 11  1  0  0  0  0
  9 12  1  0  0  0  0
 12 13  4  0  0  0  0
 13 14  1  0  0  0  0
 13 15  4  0  0  0  0
 15 16  1  0  0  0  0
 15 17  4  0  0  0  0
 17 18  1  0  0  0  0
 18 19  1  0  0  0  0
 18 20  1  0  0  0  0
 20 21  4  0  0  0  0
 21 22  4  0  0  0  0
 22 23  1  0  0  0  0
 22 24  4  0  0  0  0
 24 25  1  0  0  0  0
 25 26  2  0  0  0  0
 25 27  1  0  0  0  0
 27 28  1  0  0  0  0
 27 29  1  0  0  0  0
 24 30  4  0  0  0  0
 30 31  1  0  0  0  0
 31 32  1  0  0  0  0
 31 33  1  0  0  0  0
 33 34  1  0  0  0  0
 33 35  1  0  0  0  0
 33 36  1  0  0  0  0
 36 37  4  0  0  0  0
 37 38  1  0  0  0  0
 37 39  4  0  0  0  0
 39 40  1  0  0  0  0
 39 41  4  0  0  0  0
 41 42  1  0  0  0  0
 41 43  4  0  0  0  0
 43 44  1  0  0  0  0
 43 45  4  0  0  0  0
 36 45  4  0  0  0  0
 45 46  1  0  0  0  0
 30 47  4  0  0  0  0
 20 47  4  0  0  0  0
 17 48  4  0  0  0  0
 48 49  1  0  0  0  0
 48 50  4  0  0  0  0
 12 50  4  0  0  0  0
 50 51  1  0  0  0  0
M  END
> <pActivity>
7.0915149811213505

$$$$
CHEMBL427436
  Mrv2316 04152410472D          

 51 53  0  0  0  0            999 V2000
    7.1447    0.0000    0.0000 H   0  0  0  0  0  0  0  0  0  0  0  0
    6.4302   -0.4125    0.0000 O   0  0  0  0  0  0  0  0  0  0  0  0
    6.4302   -1.2375    0.0000 C   0  0  0  0  0  0  0  0  0  0  0  0
    7.1447   -1.6500    0.0000 C   0  0  0  0  0  0  0  0  0  0  0  0
    7.8592   -1.2375    0.0000 H   0  0  0  0  0  0  0  0  0  0  0  0
    7.1447   -2.4750    0.0000 C   0  0  0  0  0  0  0  0  0  0  0  0
    7.8592   -2.8875    0.0000 H   0  0  0  0  0  0  0  0  0  0  0  0
    6.4302   -2.8875    0.0000 C   0  0  0  0  0  0  0  0  0  0  0  0
    6.4302   -3.7125    0.0000 C   0  0  0  0  0  0  0  0  0  0  0  0
    5.6066   -3.7605    0.0000 H   0  0  0  0  0  0  0  0  0  0  0  0
    5.9769   -4.4018    0.0000 H   0  0  0  0  0  0  0  0  0  0  0  0
    7.1447   -4.1250    0.0000 C   0  0  0  0  0  0  0  0  0  0  0  0
    7.9683   -4.0770    0.0000 H   0  0  0  0  0  0  0  0  0  0  0  0
    7.5981   -3.4357    0.0000 H   0  0  0  0  0  0  0  0  0  0  0  0
    7.1447   -4.9500    0.0000 N   0  0  0  0  0  0  0  0  0  0  0  0
    6.4302   -5.3625    0.0000 H   0  0  0  0  0  0  0  0  0  0  0  0
    7.8592   -5.3625    0.0000 C   0  0  0  0  0  0  0  0  0  0  0  0
    8.5737   -4.9500    0.0000 N   0  0  0  0  0  0  0  0  0  0  0  0
    9.2881   -5.3625    0.0000 C   0  0  0  0  0  0  0  0  0  0  0  0
   10.0026   -4.9500    0.0000 H   0  0  0  0  0  0  0  0  0  0  0  0
    9.2881   -6.1875    0.0000 C   0  0  0  0  0  0  0  0  0  0  0  0
   10.0026   -6.6000    0.0000 C   0  0  0  0  0  0  0  0  0  0  0  0
   10.0026   -7.4250    0.0000 O   0  0  0  0  0  0  0  0  0  0  0  0
   10.7171   -6.1875    0.0000 N   0  0  0  0  0  0  0  0  0  0  0  0
   11.4315   -6.6000    0.0000 H   0  0  0  0  0  0  0  0  0  0  0  0
   10.7171   -5.3625    0.0000 H   0  0  0  0  0  0  0  0  0  0  0  0
    8.5737   -6.6000    0.0000 C   0  0  0  0  0  0  0  0  0  0  0  0
    8.5737   -7.4250    0.0000 N   0  0  0  0  0  0  0  0  0  0  0  0
    9.2881   -7.8375    0.0000 H   0  0  0  0  0  0  0  0  0  0  0  0
    7.8592   -7.8375    0.0000 C   0  0  0  0  0  0  0  0  0  0  0  0
    7.8592   -7.0125    0.0000 H   0  0  0  0  0  0  0  0  0  0  0  0
    7.8592   -8.6625    0.0000 C   0  0  0  0  0  0  0  0  0  0  0  0
    8.3125   -9.3518    0.0000 H   0  0  0  0  0  0  0  0  0  0  0  0
    8.6828   -8.7105    0.0000 H   0  0  0  0  0  0  0  0  0  0  0  0
    7.1447   -9.0750    0.0000 C   0  0  0  0  0  0  0  0  0  0  0  0
    6.7745   -9.8122    0.0000 H   0  0  0  0  0  0  0  0  0  0  0  0
    7.5150   -9.8122    0.0000 H   0  0  0  0  0  0  0  0  0  0  0  0
    6.4302   -8.6625    0.0000 C   0  0  0  0  0  0  0  0  0  0  0  0
    5.6066   -8.7105    0.0000 H   0  0  0  0  0  0  0  0  0  0  0  0
    5.9769   -9.3518    0.0000 H   0  0  0  0  0  0  0  0  0  0  0  0
    6.4302   -7.8375    0.0000 C   0  0  0  0  0  0  0  0  0  0  0  0
    5.9769   -7.1482    0.0000 H   0  0  0  0  0  0  0  0  0  0  0  0
    5.6066   -7.7895    0.0000 H   0  0  0  0  0  0  0  0  0  0  0  0
    7.1447   -7.4250    0.0000 C   0  0  0  0  0  0  0  0  0  0  0  0
    7.0014   -6.6125    0.0000 H   0  0  0  0  0  0  0  0  0  0  0  0
    6.5127   -6.8947    0.0000 H   0  0  0  0  0  0  0  0  0  0  0  0
    7.8592   -6.1875    0.0000 N   0  0  0  0  0  0  0  0  0  0  0  0
    5.7158   -2.4750    0.0000 C   0  0  0  0  0  0  0  0  0  0  0  0
    5.0013   -2.8875    0.0000 H   0  0  0  0  0  0  0  0  0  0  0  0
    5.7158   -1.6500    0.0000 C   0  0  0  0  0  0  0  0  0  0  0  0
    5.0013   -1.2375    0.0000 H   0  0  0  0  0  0  0  0  0  0  0  0
  1  2  1  0  0  0  0
  2  3  1  0  0  0  0
  3  4  4  0  0  0  0
  4  5  1  0  0  0  0
  4  6  4  0  0  0  0
  6  7  1  0  0  0  0
  6  8  4  0  0  0  0
  8  9  1  0  0  0  0
  9 10  1  0  0  0  0
  9 11  1  0  0  0  0
  9 12  1  0  0  0  0
 12 13  1  0  0  0  0
 12 14  1  0  0  0  0
 12 15  1  0  0  0  0
 15 16  1  0  0  0  0
 15 17  1  0  0  0  0
 17 18  4  0  0  0  0
 18 19  4  0  0  0  0
 19 20  1  0  0  0  0
 19 21  4  0  0  0  0
 21 22  1  0  0  0  0
 22 23  2  0  0  0  0
 22 24  1  0  0  0  0
 24 25  1  0  0  0  0
 24 26  1  0  0  0  0
 21 27  4  0  0  0  0
 27 28  1  0  0  0  0
 28 29  1  0  0  0  0
 28 30  1  0  0  0  0
 30 31  1  0  0  0  0
 30 32  1  0  0  0  0
 32 33  1  0  0  0  0
 32 34  1  0  0  0  0
 32 35  1  0  0  0  0
 35 36  1  0  0  0  0
 35 37  1  0  0  0  0
 35 38  1  0  0  0  0
 38 39  1  0  0  0  0
 38 40  1  0  0  0  0
 38 41  1  0  0  0  0
 41 42  1  0  0  0  0
 41 43  1  0  0  0  0
 41 44  1  0  0  0  0
 30 44  1  0  0  0  0
 44 45  1  0  0  0  0
 44 46  1  0  0  0  0
 27 47  4  0  0  0  0
 17 47  4  0  0  0  0
  8 48  4  0  0  0  0
 48 49  1  0  0  0  0
 48 50  4  0  0  0  0
  3 50  4  0  0  0  0
 50 51  1  0  0  0  0
M  END
> <pActivity>
7.0

$$$$
CHEMBL461720
  Mrv2316 04152410472D          

 48 50  0  0  0  0            999 V2000
    2.8579   -2.4750    0.0000 H   0  0  0  0  0  0  0  0  0  0  0  0
    2.1434   -2.8875    0.0000 O   0  0  0  0  0  0  0  0  0  0  0  0
    2.1434   -3.7125    0.0000 C   0  0  0  0  0  0  0  0  0  0  0  0
    1.3198   -3.7605    0.0000 H   0  0  0  0  0  0  0  0  0  0  0  0
    1.6901   -4.4018    0.0000 H   0  0  0  0  0  0  0  0  0  0  0  0
    2.8579   -4.1250    0.0000 C   0  0  0  0  0  0  0  0  0  0  0  0
    3.6815   -4.0770    0.0000 H   0  0  0  0  0  0  0  0  0  0  0  0
    3.3112   -3.4357    0.0000 H   0  0  0  0  0  0  0  0  0  0  0  0
    2.8579   -4.9500    0.0000 C   0  0  0  0  0  0  0  0  0  0  0  0
    3.5724   -5.3625    0.0000 C   0  0  0  0  0  0  0  0  0  0  0  0
    4.2868   -4.9500    0.0000 H   0  0  0  0  0  0  0  0  0  0  0  0
    3.5724   -6.1875    0.0000 C   0  0  0  0  0  0  0  0  0  0  0  0
    4.2868   -6.6000    0.0000 H   0  0  0  0  0  0  0  0  0  0  0  0
    2.8579   -6.6000    0.0000 C   0  0  0  0  0  0  0  0  0  0  0  0
    2.8579   -7.4250    0.0000 N   0  0  0  0  0  0  0  0  0  0  0  0
    2.1434   -7.8375    0.0000 H   0  0  0  0  0  0  0  0  0  0  0  0
    3.5724   -7.8375    0.0000 C   0  0  0  0  0  0  0  0  0  0  0  0
    4.2868   -7.4250    0.0000 N   0  0  0  0  0  0  0  0  0  0  0  0
    5.0013   -7.8375    0.0000 C   0  0  0  0  0  0  0  0  0  0  0  0
    5.7158   -7.4250    0.0000 H   0  0  0  0  0  0  0  0  0  0  0  0
    5.0013   -8.6625    0.0000 C   0  0  0  0  0  0  0  0  0  0  0  0
    5.7158   -9.0750    0.0000 C   0  0  0  0  0  0  0  0  0  0  0  0
    5.7158   -9.9000    0.0000 O   0  0  0  0  0  0  0  0  0  0  0  0
    6.4302   -8.6625    0.0000 N   0  0  0  0  0  0  0  0  0  0  0  0
    7.1447   -9.0750    0.0000 H   0  0  0  0  0  0  0  0  0  0  0  0
    6.4302   -7.8375    0.0000 H   0  0  0  0  0  0  0  0  0  0  0  0
    4.2868   -9.0750    0.0000 C   0  0  0  0  0  0  0  0  0  0  0  0
    4.2868   -9.9000    0.0000 N   0  0  0  0  0  0  0  0  0  0  0  0
    3.5724  -10.3125    0.0000 H   0  0  0  0  0  0  0  0  0  0  0  0
    5.0013  -10.3125    0.0000 C   0  0  0  0  0  0  0  0  0  0  0  0
    5.0013   -9.4875    0.0000 H   0  0  0  0  0  0  0  0  0  0  0  0
    5.7158  -10.7250    0.0000 H   0  0  0  0  0  0  0  0  0  0  0  0
    5.0013  -11.1375    0.0000 C   0  0  0  0  0  0  0  0  0  0  0  0
    5.7158  -11.5500    0.0000 C   0  0  0  0  0  0  0  0  0  0  0  0
    6.5408  -11.5500    0.0000 H   0  0  0  0  0  0  0  0  0  0  0  0
    5.7158  -12.3750    0.0000 C   0  0  0  0  0  0  0  0  0  0  0  0
    6.4302  -12.7875    0.0000 H   0  0  0  0  0  0  0  0  0  0  0  0
    5.0013  -12.7875    0.0000 C   0  0  0  0  0  0  0  0  0  0  0  0
    5.0013  -13.6125    0.0000 H   0  0  0  0  0  0  0  0  0  0  0  0
    4.2868  -12.3750    0.0000 C   0  0  0  0  0  0  0  0  0  0  0  0
    3.5724  -12.7875    0.0000 H   0  0  0  0  0  0  0  0  0  0  0  0
    4.2868  -11.5500    0.0000 C   0  0  0  0  0  0  0  0  0  0  0  0
    3.5724  -11.1375    0.0000 H   0  0  0  0  0  0  0  0  0  0  0  0
    3.5724   -8.6625    0.0000 N   0  0  0  0  0  0  0  0  0  0  0  0
    2.1434   -6.1875    0.0000 C   0  0  0  0  0  0  0  0  0  0  0  0
    1.4289   -6.6000    0.0000 H   0  0  0  0  0  0  0  0  0  0  0  0
    2.1434   -5.3625    0.0000 C   0  0  0  0  0  0  0  0  0  0  0  0
    1.4289   -4.9500    0.0000 H   0  0  0  0  0  0  0  0  0  0  0  0
  1  2  1  0  0  0  0
  2  3  1  0  0  0  0
  3  4  1  0  0  0  0
  3  5  1  0  0  0  0
  3  6  1  0  0  0  0
  6  7  1  0  0  0  0
  6  8  1  0  0  0  0
  6  9  1  0  0  0  0
  9 10  4  0  0  0  0
 10 11  1  0  0  0  0
 10 12  4  0  0  0  0
 12 13  1  0  0  0  0
 12 14  4  0  0  0  0
 14 15  1  0  0  0  0
 15 16  1  0  0  0  0
 15 17  1  0  0  0  0
 17 18  4  0  0  0  0
 18 19  4  0  0  0  0
 19 20  1  0  0  0  0
 19 21  4  0  0  0  0
 21 22  1  0  0  0  0
 22 23  2  0  0  0  0
 22 24  1  0  0  0  0
 24 25  1  0  0  0  0
 24 26  1  0  0  0  0
 21 27  4  0  0  0  0
 27 28  1  0  0  0  0
 28 29  1  0  0  0  0
 28 30  1  0  0  0  0
 30 31  1  0  0  0  0
 30 32  1  0  0  0  0
 30 33  1  0  0  0  0
 33 34  4  0  0  0  0
 34 35  1  0  0  0  0
 34 36  4  0  0  0  0
 36 37  1  0  0  0  0
 36 38  4  0  0  0  0
 38 39  1  0  0  0  0
 38 40  4  0  0  0  0
 40 41  1  0  0  0  0
 40 42  4  0  0  0  0
 33 42  4  0  0  0  0
 42 43  1  0  0  0  0
 27 44  4  0  0  0  0
 17 44  4  0  0  0  0
 14 45  4  0  0  0  0
 45 46  1  0  0  0  0
 45 47  4  0  0  0  0
  9 47  4  0  0  0  0
 47 48  1  0  0  0  0
M  END
> <pActivity>
7.022276394711151

$$$$
CHEMBL518350
  Mrv2316 04152410472D          

 48 50  0  0  0  0            999 V2000
    4.2868   -4.9500    0.0000 H   0  0  0  0  0  0  0  0  0  0  0  0
    3.5724   -5.3625    0.0000 O   0  0  0  0  0  0  0  0  0  0  0  0
    3.5724   -6.1875    0.0000 C   0  0  0  0  0  0  0  0  0  0  0  0
    4.2868   -6.6000    0.0000 C   0  0  0  0  0  0  0  0  0  0  0  0
    5.0013   -6.1875    0.0000 Cl  0  0  0  0  0  0  0  0  0  0  0  0
    4.2868   -7.4250    0.0000 C   0  0  0  0  0  0  0  0  0  0  0  0
    5.0013   -7.8375    0.0000 H   0  0  0  0  0  0  0  0  0  0  0  0
    3.5724   -7.8375    0.0000 C   0  0  0  0  0  0  0  0  0  0  0  0
    3.5724   -8.6625    0.0000 C   0  0  0  0  0  0  0  0  0  0  0  0
    2.7488   -8.7105    0.0000 H   0  0  0  0  0  0  0  0  0  0  0  0
    3.1190   -9.3518    0.0000 H   0  0  0  0  0  0  0  0  0  0  0  0
    4.2868   -9.0750    0.0000 C   0  0  0  0  0  0  0  0  0  0  0  0
    5.1104   -9.0270    0.0000 H   0  0  0  0  0  0  0  0  0  0  0  0
    4.7402   -8.3857    0.0000 H   0  0  0  0  0  0  0  0  0  0  0  0
    4.2868   -9.9000    0.0000 N   0  0  0  0  0  0  0  0  0  0  0  0
    3.5724  -10.3125    0.0000 H   0  0  0  0  0  0  0  0  0  0  0  0
    5.0013  -10.3125    0.0000 C   0  0  0  0  0  0  0  0  0  0  0  0
    5.7158   -9.9000    0.0000 N   0  0  0  0  0  0  0  0  0  0  0  0
    6.4302  -10.3125    0.0000 C   0  0  0  0  0  0  0  0  0  0  0  0
    7.1447   -9.9000    0.0000 H   0  0  0  0  0  0  0  0  0  0  0  0
    6.4302  -11.1375    0.0000 C   0  0  0  0  0  0  0  0  0  0  0  0
    7.1447  -11.5500    0.0000 C   0  0  0  0  0  0  0  0  0  0  0  0
    7.1447  -12.3750    0.0000 O   0  0  0  0  0  0  0  0  0  0  0  0
    7.8592  -11.1375    0.0000 N   0  0  0  0  0  0  0  0  0  0  0  0
    8.5737  -11.5500    0.0000 H   0  0  0  0  0  0  0  0  0  0  0  0
    7.8592  -10.3125    0.0000 H   0  0  0  0  0  0  0  0  0  0  0  0
    5.7158  -11.5500    0.0000 C   0  0  0  0  0  0  0  0  0  0  0  0
    5.7158  -12.3750    0.0000 N   0  0  0  0  0  0  0  0  0  0  0  0
    5.0013  -12.7875    0.0000 H   0  0  0  0  0  0  0  0  0  0  0  0
    6.4302  -12.7875    0.0000 C   0  0  0  0  0  0  0  0  0  0  0  0
    6.4302  -11.9625    0.0000 H   0  0  0  0  0  0  0  0  0  0  0  0
    7.1447  -13.2000    0.0000 H   0  0  0  0  0  0  0  0  0  0  0  0
    6.4302  -13.6125    0.0000 C   0  0  0  0  0  0  0  0  0  0  0  0
    7.1447  -14.0250    0.0000 C   0  0  0  0  0  0  0  0  0  0  0  0
    7.9697  -14.0250    0.0000 H   0  0  0  0  0  0  0  0  0  0  0  0
    7.1447  -14.8500    0.0000 C   0  0  0  0  0  0  0  0  0  0  0  0
    7.8592  -15.2625    0.0000 H   0  0  0  0  0  0  0  0  0  0  0  0
    6.4302  -15.2625    0.0000 C   0  0  0  0  0  0  0  0  0  0  0  0
    6.4302  -16.0875    0.0000 H   0  0  0  0  0  0  0  0  0  0  0  0
    5.7158  -14.8500    0.0000 C   0  0  0  0  0  0  0  0  0  0  0  0
    5.0013  -15.2625    0.0000 H   0  0  0  0  0  0  0  0  0  0  0  0
    5.7158  -14.0250    0.0000 C   0  0  0  0  0  0  0  0  0  0  0  0
    5.0013  -13.6125    0.0000 H   0  0  0  0  0  0  0  0  0  0  0  0
    5.0013  -11.1375    0.0000 N   0  0  0  0  0  0  0  0  0  0  0  0
    2.8579   -7.4250    0.0000 C   0  0  0  0  0  0  0  0  0  0  0  0
    2.1434   -7.8375    0.0000 H   0  0  0  0  0  0  0  0  0  0  0  0
    2.8579   -6.6000    0.0000 C   0  0  0  0  0  0  0  0  0  0  0  0
    2.1434   -6.1875    0.0000 Cl  0  0  0  0  0  0  0  0  0  0  0  0
  1  2  1  0  0  0  0
  2  3  1  0  0  0  0
  3  4  4  0  0  0  0
  4  5  1  0  0  0  0
  4  6  4  0  0  0  0
  6  7  1  0  0  0  0
  6  8  4  0  0  0  0
  8  9  1  0  0  0  0
  9 10  1  0  0  0  0
  9 11  1  0  0  0  0
  9 12  1  0  0  0  0
 12 13  1  0  0  0  0
 12 14  1  0  0  0  0
 12 15  1  0  0  0  0
 15 16  1  0  0  0  0
 15 17  1  0  0  0  0
 17 18  4  0  0  0  0
 18 19  4  0  0  0  0
 19 20  1  0  0  0  0
 19 21  4  0  0  0  0
 21 22  1  0  0  0  0
 22 23  2  0  0  0  0
 22 24  1  0  0  0  0
 24 25  1  0  0  0  0
 24 26  1  0  0  0  0
 21 27  4  0  0  0  0
 27 28  1  0  0  0  0
 28 29  1  0  0  0  0
 28 30  1  0  0  0  0
 30 31  1  0  0  0  0
 30 32  1  0  0  0  0
 30 33  1  0  0  0  0
 33 34  4  0  0  0  0
 34 35  1  0  0  0  0
 34 36  4  0  0  0  0
 36 37  1  0  0  0  0
 36 38  4  0  0  0  0
 38 39  1  0  0  0  0
 38 40  4  0  0  0  0
 40 41  1  0  0  0  0
 40 42  4  0  0  0  0
 33 42  4  0  0  0  0
 42 43  1  0  0  0  0
 27 44  4  0  0  0  0
 17 44  4  0  0  0  0
  8 45  4  0  0  0  0
 45 46  1  0  0  0  0
 45 47  4  0  0  0  0
  3 47  4  0  0  0  0
 47 48  1  0  0  0  0
M  END
> <pActivity>
7.214670164989232

$$$$
CHEMBL605087
  Mrv2316 04152410472D          

 54 58  0  0  0  0            999 V2000
    3.2789    2.0625    0.0000 H   0  0  0  0  0  0  0  0  0  0  0  0
    3.2789    1.2375    0.0000 C   0  0  0  0  0  0  0  0  0  0  0  0
    3.9934    0.8250    0.0000 N   0  0  0  0  0  0  0  0  0  0  0  0
    3.9934    0.0000    0.0000 C   0  0  0  0  0  0  0  0  0  0  0  0
    4.7079   -0.4125    0.0000 N   0  0  0  0  0  0  0  0  0  0  0  0
    4.7079   -1.2375    0.0000 H   0  0  0  0  0  0  0  0  0  0  0  0
    5.4223    0.0000    0.0000 C   0  0  0  0  0  0  0  0  0  0  0  0
    5.4223    0.8250    0.0000 C   0  0  0  0  0  0  0  0  0  0  0  0
    4.7079    1.2375    0.0000 H   0  0  0  0  0  0  0  0  0  0  0  0
    6.1368    1.2375    0.0000 C   0  0  0  0  0  0  0  0  0  0  0  0
    6.1368    2.0625    0.0000 H   0  0  0  0  0  0  0  0  0  0  0  0
    6.8513    0.8250    0.0000 C   0  0  0  0  0  0  0  0  0  0  0  0
    7.5658    1.2375    0.0000 N   0  0  0  0  0  0  0  0  0  0  0  0
    7.5658    2.0625    0.0000 C   0  0  0  0  0  0  0  0  0  0  0  0
    7.1124    2.7518    0.0000 H   0  0  0  0  0  0  0  0  0  0  0  0
    6.7421    2.1105    0.0000 H   0  0  0  0  0  0  0  0  0  0  0  0
    8.2802    2.4750    0.0000 C   0  0  0  0  0  0  0  0  0  0  0  0
    8.6505    3.2122    0.0000 H   0  0  0  0  0  0  0  0  0  0  0  0
    7.9100    3.2122    0.0000 H   0  0  0  0  0  0  0  0  0  0  0  0
    8.9947    2.0625    0.0000 O   0  0  0  0  0  0  0  0  0  0  0  0
    8.9947    1.2375    0.0000 C   0  0  0  0  0  0  0  0  0  0  0  0
    9.4480    0.5482    0.0000 H   0  0  0  0  0  0  0  0  0  0  0  0
    9.8183    1.1895    0.0000 H   0  0  0  0  0  0  0  0  0  0  0  0
    8.2802    0.8250    0.0000 C   0  0  0  0  0  0  0  0  0  0  0  0
    7.9100    0.0878    0.0000 H   0  0  0  0  0  0  0  0  0  0  0  0
    8.6505    0.0878    0.0000 H   0  0  0  0  0  0  0  0  0  0  0  0
    6.8513    0.0000    0.0000 C   0  0  0  0  0  0  0  0  0  0  0  0
    7.5658   -0.4125    0.0000 H   0  0  0  0  0  0  0  0  0  0  0  0
    6.1368   -0.4125    0.0000 C   0  0  0  0  0  0  0  0  0  0  0  0
    6.1368   -1.2375    0.0000 H   0  0  0  0  0  0  0  0  0  0  0  0
    3.2789   -0.4125    0.0000 N   0  0  0  0  0  0  0  0  0  0  0  0
    2.5645    0.0000    0.0000 C   0  0  0  0  0  0  0  0  0  0  0  0
    2.5645    0.8250    0.0000 C   0  0  0  0  0  0  0  0  0  0  0  0
    1.7798    1.0799    0.0000 C   0  0  0  0  0  0  0  0  0  0  0  0
    1.9231    1.8924    0.0000 H   0  0  0  0  0  0  0  0  0  0  0  0
    1.1864    1.6530    0.0000 H   0  0  0  0  0  0  0  0  0  0  0  0
    1.2949    0.4125    0.0000 C   0  0  0  0  0  0  0  0  0  0  0  0
    0.5665    0.7998    0.0000 H   0  0  0  0  0  0  0  0  0  0  0  0
    0.5665    0.0252    0.0000 H   0  0  0  0  0  0  0  0  0  0  0  0
    1.7798   -0.2549    0.0000 N   0  0  0  0  0  0  0  0  0  0  0  0
    1.5249   -1.0396    0.0000 C   0  0  0  0  0  0  0  0  0  0  0  0
    1.7431   -1.8352    0.0000 H   0  0  0  0  0  0  0  0  0  0  0  0
    2.2934   -1.3397    0.0000 H   0  0  0  0  0  0  0  0  0  0  0  0
    0.7179   -1.2111    0.0000 C   0  0  0  0  0  0  0  0  0  0  0  0
    0.4630   -1.9957    0.0000 C   0  0  0  0  0  0  0  0  0  0  0  0
    1.0150   -2.6088    0.0000 H   0  0  0  0  0  0  0  0  0  0  0  0
   -0.3440   -2.1672    0.0000 C   0  0  0  0  0  0  0  0  0  0  0  0
   -0.5989   -2.9519    0.0000 H   0  0  0  0  0  0  0  0  0  0  0  0
   -0.8960   -1.5541    0.0000 C   0  0  0  0  0  0  0  0  0  0  0  0
   -1.7030   -1.7257    0.0000 H   0  0  0  0  0  0  0  0  0  0  0  0
   -0.6411   -0.7695    0.0000 C   0  0  0  0  0  0  0  0  0  0  0  0
   -1.1931   -0.1564    0.0000 H   0  0  0  0  0  0  0  0  0  0  0  0
    0.1659   -0.5980    0.0000 C   0  0  0  0  0  0  0  0  0  0  0  0
   -0.3030    0.0808    0.0000 H   0  0  0  0  0  0  0  0  0  0  0  0
  1  2  1  0  0  0  0
  2  3  4  0  0  0  0
  3  4  4  0  0  0  0
  4  5  1  0  0  0  0
  5  6  1  0  0  0  0
  5  7  1  0  0  0  0
  7  8  4  0  0  0  0
  8  9  1  0  0  0  0
  8 10  4  0  0  0  0
 10 11  1  0  0  0  0
 10 12  4  0  0  0  0
 12 13  1  0  0  0  0
 13 14  1  0  0  0  0
 14 15  1  0  0  0  0
 14 16  1  0  0  0  0
 14 17  1  0  0  0  0
 17 18  1  0  0  0  0
 17 19  1  0  0  0  0
 17 20  1  0  0  0  0
 20 21  1  0  0  0  0
 21 22  1  0  0  0  0
 21 23  1  0  0  0  0
 21 24  1  0  0  0  0
 13 24  1  0  0  0  0
 24 25  1  0  0  0  0
 24 26  1  0  0  0  0
 12 27  4  0  0  0  0
 27 28  1  0  0  0  0
 27 29  4  0  0  0  0
  7 29  4  0  0  0  0
 29 30  1  0  0  0  0
  4 31  4  0  0  0  0
 31 32  4  0  0  0  0
 32 33  4  0  0  0  0
  2 33  4  0  0  0  0
 33 34  1  0  0  0  0
 34 35  1  0  0  0  0
 34 36  1  0  0  0  0
 34 37  1  0  0  0  0
 37 38  1  0  0  0  0
 37 39  1  0  0  0  0
 37 40  1  0  0  0  0
 32 40  1  0  0  0  0
 40 41  1  0  0  0  0
 41 42  1  0  0  0  0
 41 43  1  0  0  0  0
 41 44  1  0  0  0  0
 44 45  4  0  0  0  0
 45 46  1  0  0  0  0
 45 47  4  0  0  0  0
 47 48  1  0  0  0  0
 47 49  4  0  0  0  0
 49 50  1  0  0  0  0
 49 51  4  0  0  0  0
 51 52  1  0  0  0  0
 51 53  4  0  0  0  0
 44 53  4  0  0  0  0
 53 54  1  0  0  0  0
M  END
> <pActivity>
5.080921907623925

$$$$
CHEMBL606152
  Mrv2316 04152410472D          

 52 56  0  0  0  0            999 V2000
    1.4780   -4.9454    0.0000 H   0  0  0  0  0  0  0  0  0  0  0  0
    1.7329   -4.1608    0.0000 C   0  0  0  0  0  0  0  0  0  0  0  0
    1.1809   -3.5477    0.0000 C   0  0  0  0  0  0  0  0  0  0  0  0
    0.3739   -3.7192    0.0000 H   0  0  0  0  0  0  0  0  0  0  0  0
    1.4358   -2.7631    0.0000 C   0  0  0  0  0  0  0  0  0  0  0  0
    0.8838   -2.1500    0.0000 C   0  0  0  0  0  0  0  0  0  0  0  0
    0.0857   -1.9411    0.0000 H   0  0  0  0  0  0  0  0  0  0  0  0
    0.2396   -2.6655    0.0000 H   0  0  0  0  0  0  0  0  0  0  0  0
    1.1387   -1.3654    0.0000 N   0  0  0  0  0  0  0  0  0  0  0  0
    0.6538   -0.6979    0.0000 C   0  0  0  0  0  0  0  0  0  0  0  0
   -0.1712   -0.6979    0.0000 H   0  0  0  0  0  0  0  0  0  0  0  0
    1.1387   -0.0305    0.0000 C   0  0  0  0  0  0  0  0  0  0  0  0
    0.8838    0.7541    0.0000 H   0  0  0  0  0  0  0  0  0  0  0  0
    1.9233   -0.2854    0.0000 C   0  0  0  0  0  0  0  0  0  0  0  0
    2.6378    0.1271    0.0000 C   0  0  0  0  0  0  0  0  0  0  0  0
    2.6378    0.9521    0.0000 H   0  0  0  0  0  0  0  0  0  0  0  0
    3.3523   -0.2854    0.0000 N   0  0  0  0  0  0  0  0  0  0  0  0
    3.3523   -1.1104    0.0000 C   0  0  0  0  0  0  0  0  0  0  0  0
    4.0668   -1.5229    0.0000 N   0  0  0  0  0  0  0  0  0  0  0  0
    4.0668   -2.3479    0.0000 H   0  0  0  0  0  0  0  0  0  0  0  0
    4.7812   -1.1104    0.0000 C   0  0  0  0  0  0  0  0  0  0  0  0
    4.7812   -0.2854    0.0000 C   0  0  0  0  0  0  0  0  0  0  0  0
    4.0668    0.1271    0.0000 H   0  0  0  0  0  0  0  0  0  0  0  0
    5.4957    0.1271    0.0000 C   0  0  0  0  0  0  0  0  0  0  0  0
    5.4957    0.9521    0.0000 H   0  0  0  0  0  0  0  0  0  0  0  0
    6.2102   -0.2854    0.0000 C   0  0  0  0  0  0  0  0  0  0  0  0
    6.9246    0.1271    0.0000 N   0  0  0  0  0  0  0  0  0  0  0  0
    6.9246    0.9521    0.0000 C   0  0  0  0  0  0  0  0  0  0  0  0
    6.4713    1.6413    0.0000 H   0  0  0  0  0  0  0  0  0  0  0  0
    6.1010    1.0000    0.0000 H   0  0  0  0  0  0  0  0  0  0  0  0
    7.6391    1.3646    0.0000 C   0  0  0  0  0  0  0  0  0  0  0  0
    8.0094    2.1018    0.0000 H   0  0  0  0  0  0  0  0  0  0  0  0
    7.2689    2.1018    0.0000 H   0  0  0  0  0  0  0  0  0  0  0  0
    8.3536    0.9521    0.0000 O   0  0  0  0  0  0  0  0  0  0  0  0
    8.3536    0.1271    0.0000 C   0  0  0  0  0  0  0  0  0  0  0  0
    8.8069   -0.5622    0.0000 H   0  0  0  0  0  0  0  0  0  0  0  0
    9.1772    0.0791    0.0000 H   0  0  0  0  0  0  0  0  0  0  0  0
    7.6391   -0.2854    0.0000 C   0  0  0  0  0  0  0  0  0  0  0  0
    7.2689   -1.0227    0.0000 H   0  0  0  0  0  0  0  0  0  0  0  0
    8.0094   -1.0227    0.0000 H   0  0  0  0  0  0  0  0  0  0  0  0
    6.2102   -1.1104    0.0000 C   0  0  0  0  0  0  0  0  0  0  0  0
    6.9246   -1.5229    0.0000 H   0  0  0  0  0  0  0  0  0  0  0  0
    5.4957   -1.5229    0.0000 C   0  0  0  0  0  0  0  0  0  0  0  0
    5.4957   -2.3479    0.0000 H   0  0  0  0  0  0  0  0  0  0  0  0
    2.6378   -1.5229    0.0000 N   0  0  0  0  0  0  0  0  0  0  0  0
    1.9233   -1.1104    0.0000 C   0  0  0  0  0  0  0  0  0  0  0  0
    2.2428   -2.5916    0.0000 C   0  0  0  0  0  0  0  0  0  0  0  0
    2.4977   -1.8069    0.0000 H   0  0  0  0  0  0  0  0  0  0  0  0
    2.7948   -3.2047    0.0000 C   0  0  0  0  0  0  0  0  0  0  0  0
    3.6018   -3.0331    0.0000 H   0  0  0  0  0  0  0  0  0  0  0  0
    2.5399   -3.9893    0.0000 C   0  0  0  0  0  0  0  0  0  0  0  0
    3.0919   -4.6024    0.0000 F   0  0  0  0  0  0  0  0  0  0  0  0
  1  2  1  0  0  0  0
  2  3  4  0  0  0  0
  3  4  1  0  0  0  0
  3  5  4  0  0  0  0
  5  6  1  0  0  0  0
  6  7  1  0  0  0  0
  6  8  1  0  0  0  0
  6  9  1  0  0  0  0
  9 10  4  0  0  0  0
 10 11  1  0  0  0  0
 10 12  4  0  0  0  0
 12 13  1  0  0  0  0
 12 14  4  0  0  0  0
 14 15  4  0  0  0  0
 15 16  1  0  0  0  0
 15 17  4  0  0  0  0
 17 18  4  0  0  0  0
 18 19  1  0  0  0  0
 19 20  1  0  0  0  0
 19 21  1  0  0  0  0
 21 22  4  0  0  0  0
 22 23  1  0  0  0  0
 22 24  4  0  0  0  0
 24 25  1  0  0  0  0
 24 26  4  0  0  0  0
 26 27  1  0  0  0  0
 27 28  1  0  0  0  0
 28 29  1  0  0  0  0
 28 30  1  0  0  0  0
 28 31  1  0  0  0  0
 31 32  1  0  0  0  0
 31 33  1  0  0  0  0
 31 34  1  0  0  0  0
 34 35  1  0  0  0  0
 35 36  1  0  0  0  0
 35 37  1  0  0  0  0
 35 38  1  0  0  0  0
 27 38  1  0  0  0  0
 38 39  1  0  0  0  0
 38 40  1  0  0  0  0
 26 41  4  0  0  0  0
 41 42  1  0  0  0  0
 41 43  4  0  0  0  0
 21 43  4  0  0  0  0
 43 44  1  0  0  0  0
 18 45  4  0  0  0  0
 45 46  4  0  0  0  0
 14 46  4  0  0  0  0
  9 46  4  0  0  0  0
  5 47  4  0  0  0  0
 47 48  1  0  0  0  0
 47 49  4  0  0  0  0
 49 50  1  0  0  0  0
 49 51  4  0  0  0  0
  2 51  4  0  0  0  0
 51 52  1  0  0  0  0
M  END
> <pActivity>
5.387216143280264

$$$$
CHEMBL606350
  Mrv2316 04152410472D          

 63 67  0  0  0  0            999 V2000
   -2.3441   -2.8361    0.0000 H   0  0  0  0  0  0  0  0  0  0  0  0
   -1.5371   -2.6646    0.0000 C   0  0  0  0  0  0  0  0  0  0  0  0
   -1.2822   -1.8800    0.0000 C   0  0  0  0  0  0  0  0  0  0  0  0
   -1.8342   -1.2669    0.0000 F   0  0  0  0  0  0  0  0  0  0  0  0
   -0.4752   -1.7084    0.0000 C   0  0  0  0  0  0  0  0  0  0  0  0
   -0.2203   -0.9238    0.0000 H   0  0  0  0  0  0  0  0  0  0  0  0
    0.0768   -2.3215    0.0000 C   0  0  0  0  0  0  0  0  0  0  0  0
    0.8838   -2.1500    0.0000 C   0  0  0  0  0  0  0  0  0  0  0  0
    1.1019   -2.9456    0.0000 H   0  0  0  0  0  0  0  0  0  0  0  0
    1.6523   -2.4501    0.0000 H   0  0  0  0  0  0  0  0  0  0  0  0
    1.1387   -1.3654    0.0000 N   0  0  0  0  0  0  0  0  0  0  0  0
    0.6538   -0.6979    0.0000 C   0  0  0  0  0  0  0  0  0  0  0  0
    0.1896   -0.0160    0.0000 H   0  0  0  0  0  0  0  0  0  0  0  0
    1.1387   -0.0305    0.0000 C   0  0  0  0  0  0  0  0  0  0  0  0
    1.2740    0.7833    0.0000 H   0  0  0  0  0  0  0  0  0  0  0  0
    1.9233   -0.2854    0.0000 C   0  0  0  0  0  0  0  0  0  0  0  0
    2.6378    0.1271    0.0000 C   0  0  0  0  0  0  0  0  0  0  0  0
    2.6378    0.9521    0.0000 H   0  0  0  0  0  0  0  0  0  0  0  0
    3.3523   -0.2854    0.0000 N   0  0  0  0  0  0  0  0  0  0  0  0
    3.3523   -1.1104    0.0000 C   0  0  0  0  0  0  0  0  0  0  0  0
    4.0668   -1.5229    0.0000 N   0  0  0  0  0  0  0  0  0  0  0  0
    4.0668   -2.3479    0.0000 H   0  0  0  0  0  0  0  0  0  0  0  0
    4.7812   -1.1104    0.0000 C   0  0  0  0  0  0  0  0  0  0  0  0
    4.7812   -0.2854    0.0000 C   0  0  0  0  0  0  0  0  0  0  0  0
    4.0668    0.1271    0.0000 H   0  0  0  0  0  0  0  0  0  0  0  0
    5.4957    0.1271    0.0000 C   0  0  0  0  0  0  0  0  0  0  0  0
    5.4957    0.9521    0.0000 H   0  0  0  0  0  0  0  0  0  0  0  0
    6.2102   -0.2854    0.0000 C   0  0  0  0  0  0  0  0  0  0  0  0
    6.9246    0.1271    0.0000 N   0  0  0  0  0  0  0  0  0  0  0  0
    6.9246    0.9521    0.0000 C   0  0  0  0  0  0  0  0  0  0  0  0
    6.4713    1.6413    0.0000 H   0  0  0  0  0  0  0  0  0  0  0  0
    6.1010    1.0000    0.0000 H   0  0  0  0  0  0  0  0  0  0  0  0
    7.6391    1.3646    0.0000 C   0  0  0  0  0  0  0  0  0  0  0  0
    8.0094    2.1018    0.0000 H   0  0  0  0  0  0  0  0  0  0  0  0
    7.2689    2.1018    0.0000 H   0  0  0  0  0  0  0  0  0  0  0  0
    8.3536    0.9521    0.0000 N   0  0  0  0  0  0  0  0  0  0  0  0
    9.0681    1.3646    0.0000 C   0  0  0  0  0  0  0  0  0  0  0  0
    9.5214    0.6753    0.0000 H   0  0  0  0  0  0  0  0  0  0  0  0
    9.8917    1.3166    0.0000 H   0  0  0  0  0  0  0  0  0  0  0  0
    9.0681    2.1896    0.0000 C   0  0  0  0  0  0  0  0  0  0  0  0
    8.3536    2.6021    0.0000 O   0  0  0  0  0  0  0  0  0  0  0  0
    9.7825    2.6021    0.0000 N   0  0  0  0  0  0  0  0  0  0  0  0
   10.4970    2.1896    0.0000 H   0  0  0  0  0  0  0  0  0  0  0  0
    9.7825    3.4271    0.0000 C   0  0  0  0  0  0  0  0  0  0  0  0
   10.6075    3.4271    0.0000 H   0  0  0  0  0  0  0  0  0  0  0  0
    9.7825    4.2521    0.0000 H   0  0  0  0  0  0  0  0  0  0  0  0
    8.9575    3.4271    0.0000 H   0  0  0  0  0  0  0  0  0  0  0  0
    8.3536    0.1271    0.0000 C   0  0  0  0  0  0  0  0  0  0  0  0
    8.8069   -0.5622    0.0000 H   0  0  0  0  0  0  0  0  0  0  0  0
    9.1772    0.0791    0.0000 H   0  0  0  0  0  0  0  0  0  0  0  0
    7.6391   -0.2854    0.0000 C   0  0  0  0  0  0  0  0  0  0  0  0
    7.2689   -1.0227    0.0000 H   0  0  0  0  0  0  0  0  0  0  0  0
    8.0094   -1.0227    0.0000 H   0  0  0  0  0  0  0  0  0  0  0  0
    6.2102   -1.1104    0.0000 C   0  0  0  0  0  0  0  0  0  0  0  0
    6.9246   -1.5229    0.0000 H   0  0  0  0  0  0  0  0  0  0  0  0
    5.4957   -1.5229    0.0000 C   0  0  0  0  0  0  0  0  0  0  0  0
    5.4957   -2.3479    0.0000 H   0  0  0  0  0  0  0  0  0  0  0  0
    2.6378   -1.5229    0.0000 N   0  0  0  0  0  0  0  0  0  0  0  0
    1.9233   -1.1104    0.0000 C   0  0  0  0  0  0  0  0  0  0  0  0
   -0.1781   -3.1062    0.0000 C   0  0  0  0  0  0  0  0  0  0  0  0
    0.3739   -3.7192    0.0000 H   0  0  0  0  0  0  0  0  0  0  0  0
   -0.9851   -3.2777    0.0000 C   0  0  0  0  0  0  0  0  0  0  0  0
   -1.2400   -4.0623    0.0000 F   0  0  0  0  0  0  0  0  0  0  0  0
  1  2  1  0  0  0  0
  2  3  4  0  0  0  0
  3  4  1  0  0  0  0
  3  5  4  0  0  0  0
  5  6  1  0  0  0  0
  5  7  4  0  0  0  0
  7  8  1  0  0  0  0
  8  9  1  0  0  0  0
  8 10  1  0  0  0  0
  8 11  1  0  0  0  0
 11 12  4  0  0  0  0
 12 13  1  0  0  0  0
 12 14  4  0  0  0  0
 14 15  1  0  0  0  0
 14 16  4  0  0  0  0
 16 17  4  0  0  0  0
 17 18  1  0  0  0  0
 17 19  4  0  0  0  0
 19 20  4  0  0  0  0
 20 21  1  0  0  0  0
 21 22  1  0  0  0  0
 21 23  1  0  0  0  0
 23 24  4  0  0  0  0
 24 25  1  0  0  0  0
 24 26  4  0  0  0  0
 26 27  1  0  0  0  0
 26 28  4  0  0  0  0
 28 29  1  0  0  0  0
 29 30  1  0  0  0  0
 30 31  1  0  0  0  0
 30 32  1  0  0  0  0
 30 33  1  0  0  0  0
 33 34  1  0  0  0  0
 33 35  1  0  0  0  0
 33 36  1  0  0  0  0
 36 37  1  0  0  0  0
 37 38  1  0  0  0  0
 37 39  1  0  0  0  0
 37 40  1  0  0  0  0
 40 41  2  0  0  0  0
 40 42  1  0  0  0  0
 42 43  1  0  0  0  0
 42 44  1  0  0  0  0
 44 45  1  0  0  0  0
 44 46  1  0  0  0  0
 44 47  1  0  0  0  0
 36 48  1  0  0  0  0
 48 49  1  0  0  0  0
 48 50  1  0  0  0  0
 48 51  1  0  0  0  0
 29 51  1  0  0  0  0
 51 52  1  0  0  0  0
 51 53  1  0  0  0  0
 28 54  4  0  0  0  0
 54 55  1  0  0  0  0
 54 56  4  0  0  0  0
 23 56  4  0  0  0  0
 56 57  1  0  0  0  0
 20 58  4  0  0  0  0
 58 59  4  0  0  0  0
 16 59  4  0  0  0  0
 11 59  4  0  0  0  0
  7 60  4  0  0  0  0
 60 61  1  0  0  0  0
 60 62  4  0  0  0  0
  2 62  4  0  0  0  0
 62 63  1  0  0  0  0
M  END
> <pActivity>
8.327902142064282

$$$$
CHEMBL595488
  Mrv2316 04152410472D          

 59 63  0  0  0  0            999 V2000
   10.4970   -1.3646    0.0000 H   0  0  0  0  0  0  0  0  0  0  0  0
   10.4970   -0.5396    0.0000 O   0  0  0  0  0  0  0  0  0  0  0  0
    9.7825   -0.1271    0.0000 C   0  0  0  0  0  0  0  0  0  0  0  0
    9.7825    0.6979    0.0000 O   0  0  0  0  0  0  0  0  0  0  0  0
    9.0681   -0.5396    0.0000 C   0  0  0  0  0  0  0  0  0  0  0  0
    8.6978   -1.2768    0.0000 H   0  0  0  0  0  0  0  0  0  0  0  0
    9.4383   -1.2768    0.0000 H   0  0  0  0  0  0  0  0  0  0  0  0
    8.3536   -0.1271    0.0000 N   0  0  0  0  0  0  0  0  0  0  0  0
    7.6391   -0.5396    0.0000 C   0  0  0  0  0  0  0  0  0  0  0  0
    7.2689   -1.2768    0.0000 H   0  0  0  0  0  0  0  0  0  0  0  0
    8.0094   -1.2768    0.0000 H   0  0  0  0  0  0  0  0  0  0  0  0
    6.9246   -0.1271    0.0000 C   0  0  0  0  0  0  0  0  0  0  0  0
    6.1010   -0.1750    0.0000 H   0  0  0  0  0  0  0  0  0  0  0  0
    6.4713   -0.8163    0.0000 H   0  0  0  0  0  0  0  0  0  0  0  0
    6.9246    0.6979    0.0000 N   0  0  0  0  0  0  0  0  0  0  0  0
    6.2102    1.1104    0.0000 C   0  0  0  0  0  0  0  0  0  0  0  0
    5.4957    0.6979    0.0000 C   0  0  0  0  0  0  0  0  0  0  0  0
    5.4957   -0.1271    0.0000 H   0  0  0  0  0  0  0  0  0  0  0  0
    4.7812    1.1104    0.0000 C   0  0  0  0  0  0  0  0  0  0  0  0
    4.0668    0.6979    0.0000 H   0  0  0  0  0  0  0  0  0  0  0  0
    4.7812    1.9354    0.0000 C   0  0  0  0  0  0  0  0  0  0  0  0
    4.0668    2.3479    0.0000 N   0  0  0  0  0  0  0  0  0  0  0  0
    4.0668    3.1729    0.0000 H   0  0  0  0  0  0  0  0  0  0  0  0
    3.3523    1.9354    0.0000 C   0  0  0  0  0  0  0  0  0  0  0  0
    3.3523    1.1104    0.0000 N   0  0  0  0  0  0  0  0  0  0  0  0
    2.6378    0.6979    0.0000 C   0  0  0  0  0  0  0  0  0  0  0  0
    2.6378   -0.1271    0.0000 H   0  0  0  0  0  0  0  0  0  0  0  0
    1.9233    1.1104    0.0000 C   0  0  0  0  0  0  0  0  0  0  0  0
    1.1387    0.8555    0.0000 C   0  0  0  0  0  0  0  0  0  0  0  0
    0.8838    0.0709    0.0000 H   0  0  0  0  0  0  0  0  0  0  0  0
    0.6538    1.5229    0.0000 C   0  0  0  0  0  0  0  0  0  0  0  0
   -0.1712    1.5229    0.0000 H   0  0  0  0  0  0  0  0  0  0  0  0
    1.1387    2.1904    0.0000 N   0  0  0  0  0  0  0  0  0  0  0  0
    0.8838    2.9750    0.0000 C   0  0  0  0  0  0  0  0  0  0  0  0
    0.2396    3.4905    0.0000 H   0  0  0  0  0  0  0  0  0  0  0  0
    0.0857    2.7661    0.0000 H   0  0  0  0  0  0  0  0  0  0  0  0
    1.4358    3.5881    0.0000 C   0  0  0  0  0  0  0  0  0  0  0  0
    1.1809    4.3727    0.0000 C   0  0  0  0  0  0  0  0  0  0  0  0
    0.3739    4.5442    0.0000 H   0  0  0  0  0  0  0  0  0  0  0  0
    1.7329    4.9858    0.0000 C   0  0  0  0  0  0  0  0  0  0  0  0
    1.4780    5.7704    0.0000 F   0  0  0  0  0  0  0  0  0  0  0  0
    2.5399    4.8143    0.0000 C   0  0  0  0  0  0  0  0  0  0  0  0
    3.0919    5.4274    0.0000 H   0  0  0  0  0  0  0  0  0  0  0  0
    2.7948    4.0297    0.0000 C   0  0  0  0  0  0  0  0  0  0  0  0
    3.6018    3.8581    0.0000 F   0  0  0  0  0  0  0  0  0  0  0  0
    2.2428    3.4166    0.0000 C   0  0  0  0  0  0  0  0  0  0  0  0
    2.4977    2.6319    0.0000 H   0  0  0  0  0  0  0  0  0  0  0  0
    1.9233    1.9354    0.0000 C   0  0  0  0  0  0  0  0  0  0  0  0
    2.6378    2.3479    0.0000 N   0  0  0  0  0  0  0  0  0  0  0  0
    5.4957    2.3479    0.0000 C   0  0  0  0  0  0  0  0  0  0  0  0
    5.4957    3.1729    0.0000 H   0  0  0  0  0  0  0  0  0  0  0  0
    6.2102    1.9354    0.0000 C   0  0  0  0  0  0  0  0  0  0  0  0
    6.9246    2.3479    0.0000 H   0  0  0  0  0  0  0  0  0  0  0  0
    7.6391    1.1104    0.0000 C   0  0  0  0  0  0  0  0  0  0  0  0
    8.0094    1.8477    0.0000 H   0  0  0  0  0  0  0  0  0  0  0  0
    7.2689    1.8477    0.0000 H   0  0  0  0  0  0  0  0  0  0  0  0
    8.3536    0.6979    0.0000 C   0  0  0  0  0  0  0  0  0  0  0  0
    9.1772    0.7459    0.0000 H   0  0  0  0  0  0  0  0  0  0  0  0
    8.8069    1.3872    0.0000 H   0  0  0  0  0  0  0  0  0  0  0  0
  1  2  1  0  0  0  0
  2  3  1  0  0  0  0
  3  4  2  0  0  0  0
  3  5  1  0  0  0  0
  5  6  1  0  0  0  0
  5  7  1  0  0  0  0
  5  8  1  0  0  0  0
  8  9  1  0  0  0  0
  9 10  1  0  0  0  0
  9 11  1  0  0  0  0
  9 12  1  0  0  0  0
 12 13  1  0  0  0  0
 12 14  1  0  0  0  0
 12 15  1  0  0  0  0
 15 16  1  0  0  0  0
 16 17  4  0  0  0  0
 17 18  1  0  0  0  0
 17 19  4  0  0  0  0
 19 20  1  0  0  0  0
 19 21  4  0  0  0  0
 21 22  1  0  0  0  0
 22 23  1  0  0  0  0
 22 24  1  0  0  0  0
 24 25  4  0  0  0  0
 25 26  4  0  0  0  0
 26 27  1  0  0  0  0
 26 28  4  0  0  0  0
 28 29  4  0  0  0  0
 29 30  1  0  0  0  0
 29 31  4  0  0  0  0
 31 32  1  0  0  0  0
 31 33  4  0  0  0  0
 33 34  1  0  0  0  0
 34 35  1  0  0  0  0
 34 36  1  0  0  0  0
 34 37  1  0  0  0  0
 37 38  4  0  0  0  0
 38 39  1  0  0  0  0
 38 40  4  0  0  0  0
 40 41  1  0  0  0  0
 40 42  4  0  0  0  0
 42 43  1  0  0  0  0
 42 44  4  0  0  0  0
 44 45  1  0  0  0  0
 44 46  4  0  0  0  0
 37 46  4  0  0  0  0
 46 47  1  0  0  0  0
 33 48  4  0  0  0  0
 28 48  4  0  0  0  0
 48 49  4  0  0  0  0
 24 49  4  0  0  0  0
 21 50  4  0  0  0  0
 50 51  1  0  0  0  0
 50 52  4  0  0  0  0
 16 52  4  0  0  0  0
 52 53  1  0  0  0  0
 15 54  1  0  0  0  0
 54 55  1  0  0  0  0
 54 56  1  0  0  0  0
 54 57  1  0  0  0  0
  8 57  1  0  0  0  0
 57 58  1  0  0  0  0
 57 59  1  0  0  0  0
M  END
> <pActivity>
7.585026652029182

$$$$
CHEMBL596421
  Mrv2316 04152410472D          

 59 63  0  0  0  0            999 V2000
   10.4970   -1.3646    0.0000 H   0  0  0  0  0  0  0  0  0  0  0  0
   10.4970   -0.5396    0.0000 O   0  0  0  0  0  0  0  0  0  0  0  0
    9.7825   -0.1271    0.0000 C   0  0  0  0  0  0  0  0  0  0  0  0
   10.1528    0.6102    0.0000 H   0  0  0  0  0  0  0  0  0  0  0  0
    9.4123    0.6102    0.0000 H   0  0  0  0  0  0  0  0  0  0  0  0
    9.0681   -0.5396    0.0000 C   0  0  0  0  0  0  0  0  0  0  0  0
    8.6978   -1.2768    0.0000 H   0  0  0  0  0  0  0  0  0  0  0  0
    9.4383   -1.2768    0.0000 H   0  0  0  0  0  0  0  0  0  0  0  0
    8.3536   -0.1271    0.0000 N   0  0  0  0  0  0  0  0  0  0  0  0
    7.6391   -0.5396    0.0000 C   0  0  0  0  0  0  0  0  0  0  0  0
    7.2689   -1.2768    0.0000 H   0  0  0  0  0  0  0  0  0  0  0  0
    8.0094   -1.2768    0.0000 H   0  0  0  0  0  0  0  0  0  0  0  0
    6.9246   -0.1271    0.0000 C   0  0  0  0  0  0  0  0  0  0  0  0
    6.1010   -0.1750    0.0000 H   0  0  0  0  0  0  0  0  0  0  0  0
    6.4713   -0.8163    0.0000 H   0  0  0  0  0  0  0  0  0  0  0  0
    6.9246    0.6979    0.0000 N   0  0  0  0  0  0  0  0  0  0  0  0
    6.2102    1.1104    0.0000 C   0  0  0  0  0  0  0  0  0  0  0  0
    5.4957    0.6979    0.0000 C   0  0  0  0  0  0  0  0  0  0  0  0
    5.4957   -0.1271    0.0000 H   0  0  0  0  0  0  0  0  0  0  0  0
    4.7812    1.1104    0.0000 C   0  0  0  0  0  0  0  0  0  0  0  0
    4.0668    0.6979    0.0000 H   0  0  0  0  0  0  0  0  0  0  0  0
    4.7812    1.9354    0.0000 C   0  0  0  0  0  0  0  0  0  0  0  0
    4.0668    2.3479    0.0000 N   0  0  0  0  0  0  0  0  0  0  0  0
    4.0668    3.1729    0.0000 H   0  0  0  0  0  0  0  0  0  0  0  0
    3.3523    1.9354    0.0000 C   0  0  0  0  0  0  0  0  0  0  0  0
    3.3523    1.1104    0.0000 N   0  0  0  0  0  0  0  0  0  0  0  0
    2.6378    0.6979    0.0000 C   0  0  0  0  0  0  0  0  0  0  0  0
    2.6378   -0.1271    0.0000 H   0  0  0  0  0  0  0  0  0  0  0  0
    1.9233    1.1104    0.0000 C   0  0  0  0  0  0  0  0  0  0  0  0
    1.1387    0.8555    0.0000 N   0  0  0  0  0  0  0  0  0  0  0  0
    0.6538    1.5229    0.0000 C   0  0  0  0  0  0  0  0  0  0  0  0
   -0.1712    1.5229    0.0000 H   0  0  0  0  0  0  0  0  0  0  0  0
    1.1387    2.1904    0.0000 N   0  0  0  0  0  0  0  0  0  0  0  0
    0.8838    2.9750    0.0000 C   0  0  0  0  0  0  0  0  0  0  0  0
    0.2396    3.4905    0.0000 H   0  0  0  0  0  0  0  0  0  0  0  0
    0.0857    2.7661    0.0000 H   0  0  0  0  0  0  0  0  0  0  0  0
    1.4358    3.5881    0.0000 C   0  0  0  0  0  0  0  0  0  0  0  0
    1.1809    4.3727    0.0000 C   0  0  0  0  0  0  0  0  0  0  0  0
    0.3739    4.5442    0.0000 H   0  0  0  0  0  0  0  0  0  0  0  0
    1.7329    4.9858    0.0000 C   0  0  0  0  0  0  0  0  0  0  0  0
    1.4780    5.7704    0.0000 F   0  0  0  0  0  0  0  0  0  0  0  0
    2.5399    4.8143    0.0000 C   0  0  0  0  0  0  0  0  0  0  0  0
    3.0919    5.4274    0.0000 H   0  0  0  0  0  0  0  0  0  0  0  0
    2.7948    4.0297    0.0000 C   0  0  0  0  0  0  0  0  0  0  0  0
    3.6018    3.8581    0.0000 F   0  0  0  0  0  0  0  0  0  0  0  0
    2.2428    3.4166    0.0000 C   0  0  0  0  0  0  0  0  0  0  0  0
    2.4977    2.6319    0.0000 H   0  0  0  0  0  0  0  0  0  0  0  0
    1.9233    1.9354    0.0000 C   0  0  0  0  0  0  0  0  0  0  0  0
    2.6378    2.3479    0.0000 N   0  0  0  0  0  0  0  0  0  0  0  0
    5.4957    2.3479    0.0000 C   0  0  0  0  0  0  0  0  0  0  0  0
    5.4957    3.1729    0.0000 H   0  0  0  0  0  0  0  0  0  0  0  0
    6.2102    1.9354    0.0000 C   0  0  0  0  0  0  0  0  0  0  0  0
    6.9246    2.3479    0.0000 H   0  0  0  0  0  0  0  0  0  0  0  0
    7.6391    1.1104    0.0000 C   0  0  0  0  0  0  0  0  0  0  0  0
    8.0094    1.8477    0.0000 H   0  0  0  0  0  0  0  0  0  0  0  0
    7.2689    1.8477    0.0000 H   0  0  0  0  0  0  0  0  0  0  0  0
    8.3536    0.6979    0.0000 C   0  0  0  0  0  0  0  0  0  0  0  0
    9.1772    0.7459    0.0000 H   0  0  0  0  0  0  0  0  0  0  0  0
    8.8069    1.3872    0.0000 H   0  0  0  0  0  0  0  0  0  0  0  0
  1  2  1  0  0  0  0
  2  3  1  0  0  0  0
  3  4  1  0  0  0  0
  3  5  1  0  0  0  0
  3  6  1  0  0  0  0
  6  7  1  0  0  0  0
  6  8  1  0  0  0  0
  6  9  1  0  0  0  0
  9 10  1  0  0  0  0
 10 11  1  0  0  0  0
 10 12  1  0  0  0  0
 10 13  1  0  0  0  0
 13 14  1  0  0  0  0
 13 15  1  0  0  0  0
 13 16  1  0  0  0  0
 16 17  1  0  0  0  0
 17 18  4  0  0  0  0
 18 19  1  0  0  0  0
 18 20  4  0  0  0  0
 20 21  1  0  0  0  0
 20 22  4  0  0  0  0
 22 23  1  0  0  0  0
 23 24  1  0  0  0  0
 23 25  1  0  0  0  0
 25 26  4  0  0  0  0
 26 27  4  0  0  0  0
 27 28  1  0  0  0  0
 27 29  4  0  0  0  0
 29 30  4  0  0  0  0
 30 31  4  0  0  0  0
 31 32  1  0  0  0  0
 31 33  4  0  0  0  0
 33 34  1  0  0  0  0
 34 35  1  0  0  0  0
 34 36  1  0  0  0  0
 34 37  1  0  0  0  0
 37 38  4  0  0  0  0
 38 39  1  0  0  0  0
 38 40  4  0  0  0  0
 40 41  1  0  0  0  0
 40 42  4  0  0  0  0
 42 43  1  0  0  0  0
 42 44  4  0  0  0  0
 44 45  1  0  0  0  0
 44 46  4  0  0  0  0
 37 46  4  0  0  0  0
 46 47  1  0  0  0  0
 33 48  4  0  0  0  0
 29 48  4  0  0  0  0
 48 49  4  0  0  0  0
 25 49  4  0  0  0  0
 22 50  4  0  0  0  0
 50 51  1  0  0  0  0
 50 52  4  0  0  0  0
 17 52  4  0  0  0  0
 52 53  1  0  0  0  0
 16 54  1  0  0  0  0
 54 55  1  0  0  0  0
 54 56  1  0  0  0  0
 54 57  1  0  0  0  0
  9 57  1  0  0  0  0
 57 58  1  0  0  0  0
 57 59  1  0  0  0  0
M  END
> <pActivity>
8.2518119729938

$$$$
CHEMBL596420
  Mrv2316 04152410472D          

 56 60  0  0  0  0            999 V2000
   -2.3441   -2.8361    0.0000 H   0  0  0  0  0  0  0  0  0  0  0  0
   -1.5371   -2.6646    0.0000 C   0  0  0  0  0  0  0  0  0  0  0  0
   -1.2822   -1.8800    0.0000 C   0  0  0  0  0  0  0  0  0  0  0  0
   -1.8342   -1.2669    0.0000 F   0  0  0  0  0  0  0  0  0  0  0  0
   -0.4752   -1.7084    0.0000 C   0  0  0  0  0  0  0  0  0  0  0  0
   -0.2203   -0.9238    0.0000 H   0  0  0  0  0  0  0  0  0  0  0  0
    0.0768   -2.3215    0.0000 C   0  0  0  0  0  0  0  0  0  0  0  0
    0.8838   -2.1500    0.0000 C   0  0  0  0  0  0  0  0  0  0  0  0
    1.1019   -2.9456    0.0000 H   0  0  0  0  0  0  0  0  0  0  0  0
    1.6523   -2.4501    0.0000 H   0  0  0  0  0  0  0  0  0  0  0  0
    1.1387   -1.3654    0.0000 N   0  0  0  0  0  0  0  0  0  0  0  0
    0.6538   -0.6979    0.0000 C   0  0  0  0  0  0  0  0  0  0  0  0
    0.1896   -0.0160    0.0000 H   0  0  0  0  0  0  0  0  0  0  0  0
    1.1387   -0.0305    0.0000 C   0  0  0  0  0  0  0  0  0  0  0  0
    1.2740    0.7833    0.0000 H   0  0  0  0  0  0  0  0  0  0  0  0
    1.9233   -0.2854    0.0000 C   0  0  0  0  0  0  0  0  0  0  0  0
    2.6378    0.1271    0.0000 C   0  0  0  0  0  0  0  0  0  0  0  0
    2.6378    0.9521    0.0000 H   0  0  0  0  0  0  0  0  0  0  0  0
    3.3523   -0.2854    0.0000 N   0  0  0  0  0  0  0  0  0  0  0  0
    3.3523   -1.1104    0.0000 C   0  0  0  0  0  0  0  0  0  0  0  0
    4.0668   -1.5229    0.0000 N   0  0  0  0  0  0  0  0  0  0  0  0
    4.7812   -1.1104    0.0000 H   0  0  0  0  0  0  0  0  0  0  0  0
    4.0668   -2.3479    0.0000 C   0  0  0  0  0  0  0  0  0  0  0  0
    4.7812   -2.7604    0.0000 C   0  0  0  0  0  0  0  0  0  0  0  0
    5.4957   -2.3479    0.0000 H   0  0  0  0  0  0  0  0  0  0  0  0
    4.7812   -3.5854    0.0000 C   0  0  0  0  0  0  0  0  0  0  0  0
    5.4957   -3.9979    0.0000 H   0  0  0  0  0  0  0  0  0  0  0  0
    4.0668   -3.9979    0.0000 C   0  0  0  0  0  0  0  0  0  0  0  0
    4.0668   -4.8229    0.0000 N   0  0  0  0  0  0  0  0  0  0  0  0
    4.7812   -5.2354    0.0000 C   0  0  0  0  0  0  0  0  0  0  0  0
    5.6048   -5.1875    0.0000 H   0  0  0  0  0  0  0  0  0  0  0  0
    5.2346   -4.5462    0.0000 H   0  0  0  0  0  0  0  0  0  0  0  0
    4.7812   -6.0604    0.0000 C   0  0  0  0  0  0  0  0  0  0  0  0
    5.2346   -6.7497    0.0000 H   0  0  0  0  0  0  0  0  0  0  0  0
    5.6048   -6.1084    0.0000 H   0  0  0  0  0  0  0  0  0  0  0  0
    4.0668   -6.4729    0.0000 N   0  0  0  0  0  0  0  0  0  0  0  0
    4.0668   -7.2979    0.0000 C   0  0  0  0  0  0  0  0  0  0  0  0
    3.2418   -7.2979    0.0000 H   0  0  0  0  0  0  0  0  0  0  0  0
    4.0668   -8.1229    0.0000 H   0  0  0  0  0  0  0  0  0  0  0  0
    4.8918   -7.2979    0.0000 H   0  0  0  0  0  0  0  0  0  0  0  0
    3.3523   -6.0604    0.0000 C   0  0  0  0  0  0  0  0  0  0  0  0
    2.5287   -6.1084    0.0000 H   0  0  0  0  0  0  0  0  0  0  0  0
    2.8989   -6.7497    0.0000 H   0  0  0  0  0  0  0  0  0  0  0  0
    3.3523   -5.2354    0.0000 C   0  0  0  0  0  0  0  0  0  0  0  0
    2.8989   -4.5462    0.0000 H   0  0  0  0  0  0  0  0  0  0  0  0
    2.5287   -5.1875    0.0000 H   0  0  0  0  0  0  0  0  0  0  0  0
    3.3523   -3.5854    0.0000 C   0  0  0  0  0  0  0  0  0  0  0  0
    2.6378   -3.9979    0.0000 H   0  0  0  0  0  0  0  0  0  0  0  0
    3.3523   -2.7604    0.0000 C   0  0  0  0  0  0  0  0  0  0  0  0
    2.6378   -2.3479    0.0000 H   0  0  0  0  0  0  0  0  0  0  0  0
    2.6378   -1.5229    0.0000 N   0  0  0  0  0  0  0  0  0  0  0  0
    1.9233   -1.1104    0.0000 C   0  0  0  0  0  0  0  0  0  0  0  0
   -0.1781   -3.1062    0.0000 C   0  0  0  0  0  0  0  0  0  0  0  0
    0.3739   -3.7192    0.0000 H   0  0  0  0  0  0  0  0  0  0  0  0
   -0.9851   -3.2777    0.0000 C   0  0  0  0  0  0  0  0  0  0  0  0
   -1.2400   -4.0623    0.0000 F   0  0  0  0  0  0  0  0  0  0  0  0
  1  2  1  0  0  0  0
  2  3  4  0  0  0  0
  3  4  1  0  0  0  0
  3  5  4  0  0  0  0
  5  6  1  0  0  0  0
  5  7  4  0  0  0  0
  7  8  1  0  0  0  0
  8  9  1  0  0  0  0
  8 10  1  0  0  0  0
  8 11  1  0  0  0  0
 11 12  4  0  0  0  0
 12 13  1  0  0  0  0
 12 14  4  0  0  0  0
 14 15  1  0  0  0  0
 14 16  4  0  0  0  0
 16 17  4  0  0  0  0
 17 18  1  0  0  0  0
 17 19  4  0  0  0  0
 19 20  4  0  0  0  0
 20 21  1  0  0  0  0
 21 22  1  0  0  0  0
 21 23  1  0  0  0  0
 23 24  4  0  0  0  0
 24 25  1  0  0  0  0
 24 26  4  0  0  0  0
 26 27  1  0  0  0  0
 26 28  4  0  0  0  0
 28 29  1  0  0  0  0
 29 30  1  0  0  0  0
 30 31  1  0  0  0  0
 30 32  1  0  0  0  0
 30 33  1  0  0  0  0
 33 34  1  0  0  0  0
 33 35  1  0  0  0  0
 33 36  1  0  0  0  0
 36 37  1  0  0  0  0
 37 38  1  0  0  0  0
 37 39  1  0  0  0  0
 37 40  1  0  0  0  0
 36 41  1  0  0  0  0
 41 42  1  0  0  0  0
 41 43  1  0  0  0  0
 41 44  1  0  0  0  0
 29 44  1  0  0  0  0
 44 45  1  0  0  0  0
 44 46  1  0  0  0  0
 28 47  4  0  0  0  0
 47 48  1  0  0  0  0
 47 49  4  0  0  0  0
 23 49  4  0  0  0  0
 49 50  1  0  0  0  0
 20 51  4  0  0  0  0
 51 52  4  0  0  0  0
 16 52  4  0  0  0  0
 11 52  4  0  0  0  0
  7 53  4  0  0  0  0
 53 54  1  0  0  0  0
 53 55  4  0  0  0  0
  2 55  4  0  0  0  0
 55 56  1  0  0  0  0
M  END
> <pActivity>
8.494850021680094

$$$$
CHEMBL594344
  Mrv2316 04152410472D          

 53 57  0  0  0  0            999 V2000
   -2.3441   -2.8361    0.0000 H   0  0  0  0  0  0  0  0  0  0  0  0
   -1.5371   -2.6646    0.0000 C   0  0  0  0  0  0  0  0  0  0  0  0
   -1.2822   -1.8800    0.0000 C   0  0  0  0  0  0  0  0  0  0  0  0
   -1.8342   -1.2669    0.0000 F   0  0  0  0  0  0  0  0  0  0  0  0
   -0.4752   -1.7084    0.0000 C   0  0  0  0  0  0  0  0  0  0  0  0
   -0.2203   -0.9238    0.0000 H   0  0  0  0  0  0  0  0  0  0  0  0
    0.0768   -2.3215    0.0000 C   0  0  0  0  0  0  0  0  0  0  0  0
    0.8838   -2.1500    0.0000 C   0  0  0  0  0  0  0  0  0  0  0  0
    1.1019   -2.9456    0.0000 H   0  0  0  0  0  0  0  0  0  0  0  0
    1.6523   -2.4501    0.0000 H   0  0  0  0  0  0  0  0  0  0  0  0
    1.1387   -1.3654    0.0000 N   0  0  0  0  0  0  0  0  0  0  0  0
    0.6538   -0.6979    0.0000 C   0  0  0  0  0  0  0  0  0  0  0  0
    0.1896   -0.0160    0.0000 H   0  0  0  0  0  0  0  0  0  0  0  0
    1.1387   -0.0305    0.0000 C   0  0  0  0  0  0  0  0  0  0  0  0
    1.2740    0.7833    0.0000 H   0  0  0  0  0  0  0  0  0  0  0  0
    1.9233   -0.2854    0.0000 C   0  0  0  0  0  0  0  0  0  0  0  0
    2.6378    0.1271    0.0000 C   0  0  0  0  0  0  0  0  0  0  0  0
    2.6378    0.9521    0.0000 H   0  0  0  0  0  0  0  0  0  0  0  0
    3.3523   -0.2854    0.0000 N   0  0  0  0  0  0  0  0  0  0  0  0
    3.3523   -1.1104    0.0000 C   0  0  0  0  0  0  0  0  0  0  0  0
    4.0668   -1.5229    0.0000 N   0  0  0  0  0  0  0  0  0  0  0  0
    4.7812   -1.1104    0.0000 H   0  0  0  0  0  0  0  0  0  0  0  0
    4.0668   -2.3479    0.0000 C   0  0  0  0  0  0  0  0  0  0  0  0
    4.7812   -2.7604    0.0000 C   0  0  0  0  0  0  0  0  0  0  0  0
    5.4957   -2.3479    0.0000 H   0  0  0  0  0  0  0  0  0  0  0  0
    4.7812   -3.5854    0.0000 C   0  0  0  0  0  0  0  0  0  0  0  0
    5.4957   -3.9979    0.0000 H   0  0  0  0  0  0  0  0  0  0  0  0
    4.0668   -3.9979    0.0000 C   0  0  0  0  0  0  0  0  0  0  0  0
    4.0668   -4.8229    0.0000 N   0  0  0  0  0  0  0  0  0  0  0  0
    4.7812   -5.2354    0.0000 C   0  0  0  0  0  0  0  0  0  0  0  0
    5.6048   -5.1875    0.0000 H   0  0  0  0  0  0  0  0  0  0  0  0
    5.2346   -4.5462    0.0000 H   0  0  0  0  0  0  0  0  0  0  0  0
    4.7812   -6.0604    0.0000 C   0  0  0  0  0  0  0  0  0  0  0  0
    5.2346   -6.7497    0.0000 H   0  0  0  0  0  0  0  0  0  0  0  0
    5.6048   -6.1084    0.0000 H   0  0  0  0  0  0  0  0  0  0  0  0
    4.0668   -6.4729    0.0000 N   0  0  0  0  0  0  0  0  0  0  0  0
    4.0668   -7.2979    0.0000 H   0  0  0  0  0  0  0  0  0  0  0  0
    3.3523   -6.0604    0.0000 C   0  0  0  0  0  0  0  0  0  0  0  0
    2.5287   -6.1084    0.0000 H   0  0  0  0  0  0  0  0  0  0  0  0
    2.8989   -6.7497    0.0000 H   0  0  0  0  0  0  0  0  0  0  0  0
    3.3523   -5.2354    0.0000 C   0  0  0  0  0  0  0  0  0  0  0  0
    2.8989   -4.5462    0.0000 H   0  0  0  0  0  0  0  0  0  0  0  0
    2.5287   -5.1875    0.0000 H   0  0  0  0  0  0  0  0  0  0  0  0
    3.3523   -3.5854    0.0000 C   0  0  0  0  0  0  0  0  0  0  0  0
    2.6378   -3.9979    0.0000 H   0  0  0  0  0  0  0  0  0  0  0  0
    3.3523   -2.7604    0.0000 C   0  0  0  0  0  0  0  0  0  0  0  0
    2.6378   -2.3479    0.0000 H   0  0  0  0  0  0  0  0  0  0  0  0
    2.6378   -1.5229    0.0000 N   0  0  0  0  0  0  0  0  0  0  0  0
    1.9233   -1.1104    0.0000 C   0  0  0  0  0  0  0  0  0  0  0  0
   -0.1781   -3.1062    0.0000 C   0  0  0  0  0  0  0  0  0  0  0  0
    0.3739   -3.7192    0.0000 H   0  0  0  0  0  0  0  0  0  0  0  0
   -0.9851   -3.2777    0.0000 C   0  0  0  0  0  0  0  0  0  0  0  0
   -1.2400   -4.0623    0.0000 F   0  0  0  0  0  0  0  0  0  0  0  0
  1  2  1  0  0  0  0
  2  3  4  0  0  0  0
  3  4  1  0  0  0  0
  3  5  4  0  0  0  0
  5  6  1  0  0  0  0
  5  7  4  0  0  0  0
  7  8  1  0  0  0  0
  8  9  1  0  0  0  0
  8 10  1  0  0  0  0
  8 11  1  0  0  0  0
 11 12  4  0  0  0  0
 12 13  1  0  0  0  0
 12 14  4  0  0  0  0
 14 15  1  0  0  0  0
 14 16  4  0  0  0  0
 16 17  4  0  0  0  0
 17 18  1  0  0  0  0
 17 19  4  0  0  0  0
 19 20  4  0  0  0  0
 20 21  1  0  0  0  0
 21 22  1  0  0  0  0
 21 23  1  0  0  0  0
 23 24  4  0  0  0  0
 24 25  1  0  0  0  0
 24 26  4  0  0  0  0
 26 27  1  0  0  0  0
 26 28  4  0  0  0  0
 28 29  1  0  0  0  0
 29 30  1  0  0  0  0
 30 31  1  0  0  0  0
 30 32  1  0  0  0  0
 30 33  1  0  0  0  0
 33 34  1  0  0  0  0
 33 35  1  0  0  0  0
 33 36  1  0  0  0  0
 36 37  1  0  0  0  0
 36 38  1  0  0  0  0
 38 39  1  0  0  0  0
 38 40  1  0  0  0  0
 38 41  1  0  0  0  0
 29 41  1  0  0  0  0
 41 42  1  0  0  0  0
 41 43  1  0  0  0  0
 28 44  4  0  0  0  0
 44 45  1  0  0  0  0
 44 46  4  0  0  0  0
 23 46  4  0  0  0  0
 46 47  1  0  0  0  0
 20 48  4  0  0  0  0
 48 49  4  0  0  0  0
 16 49  4  0  0  0  0
 11 49  4  0  0  0  0
  7 50  4  0  0  0  0
 50 51  1  0  0  0  0
 50 52  4  0  0  0  0
  2 52  4  0  0  0  0
 52 53  1  0  0  0  0
M  END
> <pActivity>
7.920818753952375

$$$$
CHEMBL603203
  Mrv2316 04152410472D          

 52 56  0  0  0  0            999 V2000
   -1.2400   -4.0623    0.0000 H   0  0  0  0  0  0  0  0  0  0  0  0
   -0.9851   -3.2777    0.0000 C   0  0  0  0  0  0  0  0  0  0  0  0
   -1.5371   -2.6646    0.0000 C   0  0  0  0  0  0  0  0  0  0  0  0
   -2.3441   -2.8361    0.0000 H   0  0  0  0  0  0  0  0  0  0  0  0
   -1.2822   -1.8800    0.0000 C   0  0  0  0  0  0  0  0  0  0  0  0
   -1.8342   -1.2669    0.0000 F   0  0  0  0  0  0  0  0  0  0  0  0
   -0.4752   -1.7084    0.0000 C   0  0  0  0  0  0  0  0  0  0  0  0
   -0.2203   -0.9238    0.0000 H   0  0  0  0  0  0  0  0  0  0  0  0
    0.0768   -2.3215    0.0000 C   0  0  0  0  0  0  0  0  0  0  0  0
    0.8838   -2.1500    0.0000 C   0  0  0  0  0  0  0  0  0  0  0  0
    1.1019   -2.9456    0.0000 H   0  0  0  0  0  0  0  0  0  0  0  0
    1.6523   -2.4501    0.0000 H   0  0  0  0  0  0  0  0  0  0  0  0
    1.1387   -1.3654    0.0000 N   0  0  0  0  0  0  0  0  0  0  0  0
    0.6538   -0.6979    0.0000 C   0  0  0  0  0  0  0  0  0  0  0  0
    0.1896   -0.0160    0.0000 H   0  0  0  0  0  0  0  0  0  0  0  0
    1.1387   -0.0305    0.0000 C   0  0  0  0  0  0  0  0  0  0  0  0
    1.2740    0.7833    0.0000 H   0  0  0  0  0  0  0  0  0  0  0  0
    1.9233   -0.2854    0.0000 C   0  0  0  0  0  0  0  0  0  0  0  0
    2.6378    0.1271    0.0000 C   0  0  0  0  0  0  0  0  0  0  0  0
    2.6378    0.9521    0.0000 H   0  0  0  0  0  0  0  0  0  0  0  0
    3.3523   -0.2854    0.0000 N   0  0  0  0  0  0  0  0  0  0  0  0
    3.3523   -1.1104    0.0000 C   0  0  0  0  0  0  0  0  0  0  0  0
    4.0668   -1.5229    0.0000 N   0  0  0  0  0  0  0  0  0  0  0  0
    4.7812   -1.1104    0.0000 H   0  0  0  0  0  0  0  0  0  0  0  0
    4.0668   -2.3479    0.0000 C   0  0  0  0  0  0  0  0  0  0  0  0
    4.7812   -2.7604    0.0000 C   0  0  0  0  0  0  0  0  0  0  0  0
    5.4957   -2.3479    0.0000 H   0  0  0  0  0  0  0  0  0  0  0  0
    4.7812   -3.5854    0.0000 C   0  0  0  0  0  0  0  0  0  0  0  0
    5.4957   -3.9979    0.0000 H   0  0  0  0  0  0  0  0  0  0  0  0
    4.0668   -3.9979    0.0000 C   0  0  0  0  0  0  0  0  0  0  0  0
    4.0668   -4.8229    0.0000 N   0  0  0  0  0  0  0  0  0  0  0  0
    4.7812   -5.2354    0.0000 C   0  0  0  0  0  0  0  0  0  0  0  0
    5.6048   -5.1875    0.0000 H   0  0  0  0  0  0  0  0  0  0  0  0
    5.2346   -4.5462    0.0000 H   0  0  0  0  0  0  0  0  0  0  0  0
    4.7812   -6.0604    0.0000 C   0  0  0  0  0  0  0  0  0  0  0  0
    5.2346   -6.7497    0.0000 H   0  0  0  0  0  0  0  0  0  0  0  0
    5.6048   -6.1084    0.0000 H   0  0  0  0  0  0  0  0  0  0  0  0
    4.0668   -6.4729    0.0000 O   0  0  0  0  0  0  0  0  0  0  0  0
    3.3523   -6.0604    0.0000 C   0  0  0  0  0  0  0  0  0  0  0  0
    2.5287   -6.1084    0.0000 H   0  0  0  0  0  0  0  0  0  0  0  0
    2.8989   -6.7497    0.0000 H   0  0  0  0  0  0  0  0  0  0  0  0
    3.3523   -5.2354    0.0000 C   0  0  0  0  0  0  0  0  0  0  0  0
    2.8989   -4.5462    0.0000 H   0  0  0  0  0  0  0  0  0  0  0  0
    2.5287   -5.1875    0.0000 H   0  0  0  0  0  0  0  0  0  0  0  0
    3.3523   -3.5854    0.0000 C   0  0  0  0  0  0  0  0  0  0  0  0
    2.6378   -3.9979    0.0000 H   0  0  0  0  0  0  0  0  0  0  0  0
    3.3523   -2.7604    0.0000 C   0  0  0  0  0  0  0  0  0  0  0  0
    2.6378   -2.3479    0.0000 H   0  0  0  0  0  0  0  0  0  0  0  0
    2.6378   -1.5229    0.0000 N   0  0  0  0  0  0  0  0  0  0  0  0
    1.9233   -1.1104    0.0000 C   0  0  0  0  0  0  0  0  0  0  0  0
   -0.1781   -3.1062    0.0000 C   0  0  0  0  0  0  0  0  0  0  0  0
    0.3739   -3.7192    0.0000 H   0  0  0  0  0  0  0  0  0  0  0  0
  1  2  1  0  0  0  0
  2  3  4  0  0  0  0
  3  4  1  0  0  0  0
  3  5  4  0  0  0  0
  5  6  1  0  0  0  0
  5  7  4  0  0  0  0
  7  8  1  0  0  0  0
  7  9  4  0  0  0  0
  9 10  1  0  0  0  0
 10 11  1  0  0  0  0
 10 12  1  0  0  0  0
 10 13  1  0  0  0  0
 13 14  4  0  0  0  0
 14 15  1  0  0  0  0
 14 16  4  0  0  0  0
 16 17  1  0  0  0  0
 16 18  4  0  0  0  0
 18 19  4  0  0  0  0
 19 20  1  0  0  0  0
 19 21  4  0  0  0  0
 21 22  4  0  0  0  0
 22 23  1  0  0  0  0
 23 24  1  0  0  0  0
 23 25  1  0  0  0  0
 25 26  4  0  0  0  0
 26 27  1  0  0  0  0
 26 28  4  0  0  0  0
 28 29  1  0  0  0  0
 28 30  4  0  0  0  0
 30 31  1  0  0  0  0
 31 32  1  0  0  0  0
 32 33  1  0  0  0  0
 32 34  1  0  0  0  0
 32 35  1  0  0  0  0
 35 36  1  0  0  0  0
 35 37  1  0  0  0  0
 35 38  1  0  0  0  0
 38 39  1  0  0  0  0
 39 40  1  0  0  0  0
 39 41  1  0  0  0  0
 39 42  1  0  0  0  0
 31 42  1  0  0  0  0
 42 43  1  0  0  0  0
 42 44  1  0  0  0  0
 30 45  4  0  0  0  0
 45 46  1  0  0  0  0
 45 47  4  0  0  0  0
 25 47  4  0  0  0  0
 47 48  1  0  0  0  0
 22 49  4  0  0  0  0
 49 50  4  0  0  0  0
 18 50  4  0  0  0  0
 13 50  4  0  0  0  0
  9 51  4  0  0  0  0
  2 51  4  0  0  0  0
 51 52  1  0  0  0  0
M  END
> <pActivity>
7.431798275933005

$$$$
CHEMBL596223
  Mrv2316 04152410472D          

 52 56  0  0  0  0            999 V2000
   -2.3441   -2.8361    0.0000 H   0  0  0  0  0  0  0  0  0  0  0  0
   -1.5371   -2.6646    0.0000 C   0  0  0  0  0  0  0  0  0  0  0  0
   -1.2822   -1.8800    0.0000 C   0  0  0  0  0  0  0  0  0  0  0  0
   -1.8342   -1.2669    0.0000 F   0  0  0  0  0  0  0  0  0  0  0  0
   -0.4752   -1.7084    0.0000 C   0  0  0  0  0  0  0  0  0  0  0  0
   -0.2203   -0.9238    0.0000 H   0  0  0  0  0  0  0  0  0  0  0  0
    0.0768   -2.3215    0.0000 C   0  0  0  0  0  0  0  0  0  0  0  0
    0.8838   -2.1500    0.0000 C   0  0  0  0  0  0  0  0  0  0  0  0
    1.1019   -2.9456    0.0000 H   0  0  0  0  0  0  0  0  0  0  0  0
    1.6523   -2.4501    0.0000 H   0  0  0  0  0  0  0  0  0  0  0  0
    1.1387   -1.3654    0.0000 N   0  0  0  0  0  0  0  0  0  0  0  0
    0.6538   -0.6979    0.0000 C   0  0  0  0  0  0  0  0  0  0  0  0
    0.1896   -0.0160    0.0000 H   0  0  0  0  0  0  0  0  0  0  0  0
    1.1387   -0.0305    0.0000 C   0  0  0  0  0  0  0  0  0  0  0  0
    1.2740    0.7833    0.0000 H   0  0  0  0  0  0  0  0  0  0  0  0
    1.9233   -0.2854    0.0000 C   0  0  0  0  0  0  0  0  0  0  0  0
    2.6378    0.1271    0.0000 C   0  0  0  0  0  0  0  0  0  0  0  0
    2.6378    0.9521    0.0000 H   0  0  0  0  0  0  0  0  0  0  0  0
    3.3523   -0.2854    0.0000 N   0  0  0  0  0  0  0  0  0  0  0  0
    3.3523   -1.1104    0.0000 C   0  0  0  0  0  0  0  0  0  0  0  0
    4.0668   -1.5229    0.0000 N   0  0  0  0  0  0  0  0  0  0  0  0
    4.7812   -1.1104    0.0000 H   0  0  0  0  0  0  0  0  0  0  0  0
    4.0668   -2.3479    0.0000 C   0  0  0  0  0  0  0  0  0  0  0  0
    4.7812   -2.7604    0.0000 C   0  0  0  0  0  0  0  0  0  0  0  0
    5.4957   -2.3479    0.0000 H   0  0  0  0  0  0  0  0  0  0  0  0
    4.7812   -3.5854    0.0000 C   0  0  0  0  0  0  0  0  0  0  0  0
    5.4957   -3.9979    0.0000 H   0  0  0  0  0  0  0  0  0  0  0  0
    4.0668   -3.9979    0.0000 C   0  0  0  0  0  0  0  0  0  0  0  0
    4.0668   -4.8229    0.0000 N   0  0  0  0  0  0  0  0  0  0  0  0
    4.7812   -5.2354    0.0000 C   0  0  0  0  0  0  0  0  0  0  0  0
    5.6048   -5.1875    0.0000 H   0  0  0  0  0  0  0  0  0  0  0  0
    5.2346   -4.5462    0.0000 H   0  0  0  0  0  0  0  0  0  0  0  0
    4.7812   -6.0604    0.0000 C   0  0  0  0  0  0  0  0  0  0  0  0
    5.2346   -6.7497    0.0000 H   0  0  0  0  0  0  0  0  0  0  0  0
    5.6048   -6.1084    0.0000 H   0  0  0  0  0  0  0  0  0  0  0  0
    4.0668   -6.4729    0.0000 O   0  0  0  0  0  0  0  0  0  0  0  0
    3.3523   -6.0604    0.0000 C   0  0  0  0  0  0  0  0  0  0  0  0
    2.5287   -6.1084    0.0000 H   0  0  0  0  0  0  0  0  0  0  0  0
    2.8989   -6.7497    0.0000 H   0  0  0  0  0  0  0  0  0  0  0  0
    3.3523   -5.2354    0.0000 C   0  0  0  0  0  0  0  0  0  0  0  0
    2.8989   -4.5462    0.0000 H   0  0  0  0  0  0  0  0  0  0  0  0
    2.5287   -5.1875    0.0000 H   0  0  0  0  0  0  0  0  0  0  0  0
    3.3523   -3.5854    0.0000 C   0  0  0  0  0  0  0  0  0  0  0  0
    2.6378   -3.9979    0.0000 H   0  0  0  0  0  0  0  0  0  0  0  0
    3.3523   -2.7604    0.0000 C   0  0  0  0  0  0  0  0  0  0  0  0
    2.6378   -2.3479    0.0000 H   0  0  0  0  0  0  0  0  0  0  0  0
    2.6378   -1.5229    0.0000 N   0  0  0  0  0  0  0  0  0  0  0  0
    1.9233   -1.1104    0.0000 C   0  0  0  0  0  0  0  0  0  0  0  0
   -0.1781   -3.1062    0.0000 C   0  0  0  0  0  0  0  0  0  0  0  0
    0.3739   -3.7192    0.0000 H   0  0  0  0  0  0  0  0  0  0  0  0
   -0.9851   -3.2777    0.0000 C   0  0  0  0  0  0  0  0  0  0  0  0
   -1.2400   -4.0623    0.0000 F   0  0  0  0  0  0  0  0  0  0  0  0
  1  2  1  0  0  0  0
  2  3  4  0  0  0  0
  3  4  1  0  0  0  0
  3  5  4  0  0  0  0
  5  6  1  0  0  0  0
  5  7  4  0  0  0  0
  7  8  1  0  0  0  0
  8  9  1  0  0  0  0
  8 10  1  0  0  0  0
  8 11  1  0  0  0  0
 11 12  4  0  0  0  0
 12 13  1  0  0  0  0
 12 14  4  0  0  0  0
 14 15  1  0  0  0  0
 14 16  4  0  0  0  0
 16 17  4  0  0  0  0
 17 18  1  0  0  0  0
 17 19  4  0  0  0  0
 19 20  4  0  0  0  0
 20 21  1  0  0  0  0
 21 22  1  0  0  0  0
 21 23  1  0  0  0  0
 23 24  4  0  0  0  0
 24 25  1  0  0  0  0
 24 26  4  0  0  0  0
 26 27  1  0  0  0  0
 26 28  4  0  0  0  0
 28 29  1  0  0  0  0
 29 30  1  0  0  0  0
 30 31  1  0  0  0  0
 30 32  1  0  0  0  0
 30 33  1  0  0  0  0
 33 34  1  0  0  0  0
 33 35  1  0  0  0  0
 33 36  1  0  0  0  0
 36 37  1  0  0  0  0
 37 38  1  0  0  0  0
 37 39  1  0  0  0  0
 37 40  1  0  0  0  0
 29 40  1  0  0  0  0
 40 41  1  0  0  0  0
 40 42  1  0  0  0  0
 28 43  4  0  0  0  0
 43 44  1  0  0  0  0
 43 45  4  0  0  0  0
 23 45  4  0  0  0  0
 45 46  1  0  0  0  0
 20 47  4  0  0  0  0
 47 48  4  0  0  0  0
 16 48  4  0  0  0  0
 11 48  4  0  0  0  0
  7 49  4  0  0  0  0
 49 50  1  0  0  0  0
 49 51  4  0  0  0  0
  2 51  4  0  0  0  0
 51 52  1  0  0  0  0
M  END
> <pActivity>
6.920818753952375

$$$$
CHEMBL596410
  Mrv2316 04152410472D          

 52 56  0  0  0  0            999 V2000
   -2.3441   -2.8361    0.0000 H   0  0  0  0  0  0  0  0  0  0  0  0
   -1.5371   -2.6646    0.0000 C   0  0  0  0  0  0  0  0  0  0  0  0
   -1.2822   -1.8800    0.0000 C   0  0  0  0  0  0  0  0  0  0  0  0
   -1.8342   -1.2669    0.0000 H   0  0  0  0  0  0  0  0  0  0  0  0
   -0.4752   -1.7084    0.0000 C   0  0  0  0  0  0  0  0  0  0  0  0
   -0.2203   -0.9238    0.0000 H   0  0  0  0  0  0  0  0  0  0  0  0
    0.0768   -2.3215    0.0000 C   0  0  0  0  0  0  0  0  0  0  0  0
    0.8838   -2.1500    0.0000 C   0  0  0  0  0  0  0  0  0  0  0  0
    1.1019   -2.9456    0.0000 H   0  0  0  0  0  0  0  0  0  0  0  0
    1.6523   -2.4501    0.0000 H   0  0  0  0  0  0  0  0  0  0  0  0
    1.1387   -1.3654    0.0000 N   0  0  0  0  0  0  0  0  0  0  0  0
    0.6538   -0.6979    0.0000 C   0  0  0  0  0  0  0  0  0  0  0  0
    0.1896   -0.0160    0.0000 H   0  0  0  0  0  0  0  0  0  0  0  0
    1.1387   -0.0305    0.0000 C   0  0  0  0  0  0  0  0  0  0  0  0
    1.2740    0.7833    0.0000 H   0  0  0  0  0  0  0  0  0  0  0  0
    1.9233   -0.2854    0.0000 C   0  0  0  0  0  0  0  0  0  0  0  0
    2.6378    0.1271    0.0000 C   0  0  0  0  0  0  0  0  0  0  0  0
    2.6378    0.9521    0.0000 H   0  0  0  0  0  0  0  0  0  0  0  0
    3.3523   -0.2854    0.0000 N   0  0  0  0  0  0  0  0  0  0  0  0
    3.3523   -1.1104    0.0000 C   0  0  0  0  0  0  0  0  0  0  0  0
    4.0668   -1.5229    0.0000 N   0  0  0  0  0  0  0  0  0  0  0  0
    4.7812   -1.1104    0.0000 H   0  0  0  0  0  0  0  0  0  0  0  0
    4.0668   -2.3479    0.0000 C   0  0  0  0  0  0  0  0  0  0  0  0
    4.7812   -2.7604    0.0000 C   0  0  0  0  0  0  0  0  0  0  0  0
    5.4957   -2.3479    0.0000 H   0  0  0  0  0  0  0  0  0  0  0  0
    4.7812   -3.5854    0.0000 C   0  0  0  0  0  0  0  0  0  0  0  0
    5.4957   -3.9979    0.0000 H   0  0  0  0  0  0  0  0  0  0  0  0
    4.0668   -3.9979    0.0000 C   0  0  0  0  0  0  0  0  0  0  0  0
    4.0668   -4.8229    0.0000 N   0  0  0  0  0  0  0  0  0  0  0  0
    4.7812   -5.2354    0.0000 C   0  0  0  0  0  0  0  0  0  0  0  0
    5.6048   -5.1875    0.0000 H   0  0  0  0  0  0  0  0  0  0  0  0
    5.2346   -4.5462    0.0000 H   0  0  0  0  0  0  0  0  0  0  0  0
    4.7812   -6.0604    0.0000 C   0  0  0  0  0  0  0  0  0  0  0  0
    5.2346   -6.7497    0.0000 H   0  0  0  0  0  0  0  0  0  0  0  0
    5.6048   -6.1084    0.0000 H   0  0  0  0  0  0  0  0  0  0  0  0
    4.0668   -6.4729    0.0000 O   0  0  0  0  0  0  0  0  0  0  0  0
    3.3523   -6.0604    0.0000 C   0  0  0  0  0  0  0  0  0  0  0  0
    2.5287   -6.1084    0.0000 H   0  0  0  0  0  0  0  0  0  0  0  0
    2.8989   -6.7497    0.0000 H   0  0  0  0  0  0  0  0  0  0  0  0
    3.3523   -5.2354    0.0000 C   0  0  0  0  0  0  0  0  0  0  0  0
    2.8989   -4.5462    0.0000 H   0  0  0  0  0  0  0  0  0  0  0  0
    2.5287   -5.1875    0.0000 H   0  0  0  0  0  0  0  0  0  0  0  0
    3.3523   -3.5854    0.0000 C   0  0  0  0  0  0  0  0  0  0  0  0
    2.6378   -3.9979    0.0000 H   0  0  0  0  0  0  0  0  0  0  0  0
    3.3523   -2.7604    0.0000 C   0  0  0  0  0  0  0  0  0  0  0  0
    2.6378   -2.3479    0.0000 H   0  0  0  0  0  0  0  0  0  0  0  0
    2.6378   -1.5229    0.0000 N   0  0  0  0  0  0  0  0  0  0  0  0
    1.9233   -1.1104    0.0000 C   0  0  0  0  0  0  0  0  0  0  0  0
   -0.1781   -3.1062    0.0000 C   0  0  0  0  0  0  0  0  0  0  0  0
    0.3739   -3.7192    0.0000 F   0  0  0  0  0  0  0  0  0  0  0  0
   -0.9851   -3.2777    0.0000 C   0  0  0  0  0  0  0  0  0  0  0  0
   -1.2400   -4.0623    0.0000 H   0  0  0  0  0  0  0  0  0  0  0  0
  1  2  1  0  0  0  0
  2  3  4  0  0  0  0
  3  4  1  0  0  0  0
  3  5  4  0  0  0  0
  5  6  1  0  0  0  0
  5  7  4  0  0  0  0
  7  8  1  0  0  0  0
  8  9  1  0  0  0  0
  8 10  1  0  0  0  0
  8 11  1  0  0  0  0
 11 12  4  0  0  0  0
 12 13  1  0  0  0  0
 12 14  4  0  0  0  0
 14 15  1  0  0  0  0
 14 16  4  0  0  0  0
 16 17  4  0  0  0  0
 17 18  1  0  0  0  0
 17 19  4  0  0  0  0
 19 20  4  0  0  0  0
 20 21  1  0  0  0  0
 21 22  1  0  0  0  0
 21 23  1  0  0  0  0
 23 24  4  0  0  0  0
 24 25  1  0  0  0  0
 24 26  4  0  0  0  0
 26 27  1  0  0  0  0
 26 28  4  0  0  0  0
 28 29  1  0  0  0  0
 29 30  1  0  0  0  0
 30 31  1  0  0  0  0
 30 32  1  0  0  0  0
 30 33  1  0  0  0  0
 33 34  1  0  0  0  0
 33 35  1  0  0  0  0
 33 36  1  0  0  0  0
 36 37  1  0  0  0  0
 37 38  1  0  0  0  0
 37 39  1  0  0  0  0
 37 40  1  0  0  0  0
 29 40  1  0  0  0  0
 40 41  1  0  0  0  0
 40 42  1  0  0  0  0
 28 43  4  0  0  0  0
 43 44  1  0  0  0  0
 43 45  4  0  0  0  0
 23 45  4  0  0  0  0
 45 46  1  0  0  0  0
 20 47  4  0  0  0  0
 47 48  4  0  0  0  0
 16 48  4  0  0  0  0
 11 48  4  0  0  0  0
  7 49  4  0  0  0  0
 49 50  1  0  0  0  0
 49 51  4  0  0  0  0
  2 51  4  0  0  0  0
 51 52  1  0  0  0  0
M  END
> <pActivity>
6.657577319177793

$$$$
CHEMBL593392
  Mrv2316 04152410472D          

 52 56  0  0  0  0            999 V2000
   -2.3441   -2.8361    0.0000 H   0  0  0  0  0  0  0  0  0  0  0  0
   -1.5371   -2.6646    0.0000 C   0  0  0  0  0  0  0  0  0  0  0  0
   -1.2822   -1.8800    0.0000 C   0  0  0  0  0  0  0  0  0  0  0  0
   -1.8342   -1.2669    0.0000 H   0  0  0  0  0  0  0  0  0  0  0  0
   -0.4752   -1.7084    0.0000 C   0  0  0  0  0  0  0  0  0  0  0  0
   -0.2203   -0.9238    0.0000 H   0  0  0  0  0  0  0  0  0  0  0  0
    0.0768   -2.3215    0.0000 C   0  0  0  0  0  0  0  0  0  0  0  0
    0.8838   -2.1500    0.0000 C   0  0  0  0  0  0  0  0  0  0  0  0
    1.1019   -2.9456    0.0000 H   0  0  0  0  0  0  0  0  0  0  0  0
    1.6523   -2.4501    0.0000 H   0  0  0  0  0  0  0  0  0  0  0  0
    1.1387   -1.3654    0.0000 N   0  0  0  0  0  0  0  0  0  0  0  0
    0.6538   -0.6979    0.0000 C   0  0  0  0  0  0  0  0  0  0  0  0
    0.1896   -0.0160    0.0000 H   0  0  0  0  0  0  0  0  0  0  0  0
    1.1387   -0.0305    0.0000 C   0  0  0  0  0  0  0  0  0  0  0  0
    1.2740    0.7833    0.0000 H   0  0  0  0  0  0  0  0  0  0  0  0
    1.9233   -0.2854    0.0000 C   0  0  0  0  0  0  0  0  0  0  0  0
    2.6378    0.1271    0.0000 C   0  0  0  0  0  0  0  0  0  0  0  0
    2.6378    0.9521    0.0000 H   0  0  0  0  0  0  0  0  0  0  0  0
    3.3523   -0.2854    0.0000 N   0  0  0  0  0  0  0  0  0  0  0  0
    3.3523   -1.1104    0.0000 C   0  0  0  0  0  0  0  0  0  0  0  0
    4.0668   -1.5229    0.0000 N   0  0  0  0  0  0  0  0  0  0  0  0
    4.7812   -1.1104    0.0000 H   0  0  0  0  0  0  0  0  0  0  0  0
    4.0668   -2.3479    0.0000 C   0  0  0  0  0  0  0  0  0  0  0  0
    4.7812   -2.7604    0.0000 C   0  0  0  0  0  0  0  0  0  0  0  0
    5.4957   -2.3479    0.0000 H   0  0  0  0  0  0  0  0  0  0  0  0
    4.7812   -3.5854    0.0000 C   0  0  0  0  0  0  0  0  0  0  0  0
    5.4957   -3.9979    0.0000 H   0  0  0  0  0  0  0  0  0  0  0  0
    4.0668   -3.9979    0.0000 C   0  0  0  0  0  0  0  0  0  0  0  0
    4.0668   -4.8229    0.0000 N   0  0  0  0  0  0  0  0  0  0  0  0
    4.7812   -5.2354    0.0000 C   0  0  0  0  0  0  0  0  0  0  0  0
    5.6048   -5.1875    0.0000 H   0  0  0  0  0  0  0  0  0  0  0  0
    5.2346   -4.5462    0.0000 H   0  0  0  0  0  0  0  0  0  0  0  0
    4.7812   -6.0604    0.0000 C   0  0  0  0  0  0  0  0  0  0  0  0
    5.2346   -6.7497    0.0000 H   0  0  0  0  0  0  0  0  0  0  0  0
    5.6048   -6.1084    0.0000 H   0  0  0  0  0  0  0  0  0  0  0  0
    4.0668   -6.4729    0.0000 O   0  0  0  0  0  0  0  0  0  0  0  0
    3.3523   -6.0604    0.0000 C   0  0  0  0  0  0  0  0  0  0  0  0
    2.5287   -6.1084    0.0000 H   0  0  0  0  0  0  0  0  0  0  0  0
    2.8989   -6.7497    0.0000 H   0  0  0  0  0  0  0  0  0  0  0  0
    3.3523   -5.2354    0.0000 C   0  0  0  0  0  0  0  0  0  0  0  0
    2.8989   -4.5462    0.0000 H   0  0  0  0  0  0  0  0  0  0  0  0
    2.5287   -5.1875    0.0000 H   0  0  0  0  0  0  0  0  0  0  0  0
    3.3523   -3.5854    0.0000 C   0  0  0  0  0  0  0  0  0  0  0  0
    2.6378   -3.9979    0.0000 H   0  0  0  0  0  0  0  0  0  0  0  0
    3.3523   -2.7604    0.0000 C   0  0  0  0  0  0  0  0  0  0  0  0
    2.6378   -2.3479    0.0000 H   0  0  0  0  0  0  0  0  0  0  0  0
    2.6378   -1.5229    0.0000 N   0  0  0  0  0  0  0  0  0  0  0  0
    1.9233   -1.1104    0.0000 C   0  0  0  0  0  0  0  0  0  0  0  0
   -0.1781   -3.1062    0.0000 C   0  0  0  0  0  0  0  0  0  0  0  0
    0.3739   -3.7192    0.0000 H   0  0  0  0  0  0  0  0  0  0  0  0
   -0.9851   -3.2777    0.0000 C   0  0  0  0  0  0  0  0  0  0  0  0
   -1.2400   -4.0623    0.0000 H   0  0  0  0  0  0  0  0  0  0  0  0
  1  2  1  0  0  0  0
  2  3  4  0  0  0  0
  3  4  1  0  0  0  0
  3  5  4  0  0  0  0
  5  6  1  0  0  0  0
  5  7  4  0  0  0  0
  7  8  1  0  0  0  0
  8  9  1  0  0  0  0
  8 10  1  0  0  0  0
  8 11  1  0  0  0  0
 11 12  4  0  0  0  0
 12 13  1  0  0  0  0
 12 14  4  0  0  0  0
 14 15  1  0  0  0  0
 14 16  4  0  0  0  0
 16 17  4  0  0  0  0
 17 18  1  0  0  0  0
 17 19  4  0  0  0  0
 19 20  4  0  0  0  0
 20 21  1  0  0  0  0
 21 22  1  0  0  0  0
 21 23  1  0  0  0  0
 23 24  4  0  0  0  0
 24 25  1  0  0  0  0
 24 26  4  0  0  0  0
 26 27  1  0  0  0  0
 26 28  4  0  0  0  0
 28 29  1  0  0  0  0
 29 30  1  0  0  0  0
 30 31  1  0  0  0  0
 30 32  1  0  0  0  0
 30 33  1  0  0  0  0
 33 34  1  0  0  0  0
 33 35  1  0  0  0  0
 33 36  1  0  0  0  0
 36 37  1  0  0  0  0
 37 38  1  0  0  0  0
 37 39  1  0  0  0  0
 37 40  1  0  0  0  0
 29 40  1  0  0  0  0
 40 41  1  0  0  0  0
 40 42  1  0  0  0  0
 28 43  4  0  0  0  0
 43 44  1  0  0  0  0
 43 45  4  0  0  0  0
 23 45  4  0  0  0  0
 45 46  1  0  0  0  0
 20 47  4  0  0  0  0
 47 48  4  0  0  0  0
 16 48  4  0  0  0  0
 11 48  4  0  0  0  0
  7 49  4  0  0  0  0
 49 50  1  0  0  0  0
 49 51  4  0  0  0  0
  2 51  4  0  0  0  0
 51 52  1  0  0  0  0
M  END
> <pActivity>
6.3979400086720375

$$$$
CHEMBL593171
  Mrv2316 04152410472D          

 54 57  0  0  0  0            999 V2000
    1.4289   -1.6500    0.0000 H   0  0  0  0  0  0  0  0  0  0  0  0
    1.4289   -2.4750    0.0000 C   0  0  0  0  0  0  0  0  0  0  0  0
    2.1434   -2.8875    0.0000 N   0  0  0  0  0  0  0  0  0  0  0  0
    2.1434   -3.7125    0.0000 C   0  0  0  0  0  0  0  0  0  0  0  0
    2.8579   -4.1250    0.0000 N   0  0  0  0  0  0  0  0  0  0  0  0
    2.8579   -4.9500    0.0000 H   0  0  0  0  0  0  0  0  0  0  0  0
    3.5724   -3.7125    0.0000 C   0  0  0  0  0  0  0  0  0  0  0  0
    3.5724   -2.8875    0.0000 C   0  0  0  0  0  0  0  0  0  0  0  0
    2.8579   -2.4750    0.0000 H   0  0  0  0  0  0  0  0  0  0  0  0
    4.2868   -2.4750    0.0000 C   0  0  0  0  0  0  0  0  0  0  0  0
    4.2868   -1.6500    0.0000 H   0  0  0  0  0  0  0  0  0  0  0  0
    5.0013   -2.8875    0.0000 C   0  0  0  0  0  0  0  0  0  0  0  0
    5.7158   -2.4750    0.0000 N   0  0  0  0  0  0  0  0  0  0  0  0
    5.7158   -1.6500    0.0000 C   0  0  0  0  0  0  0  0  0  0  0  0
    5.2624   -0.9607    0.0000 H   0  0  0  0  0  0  0  0  0  0  0  0
    4.8922   -1.6020    0.0000 H   0  0  0  0  0  0  0  0  0  0  0  0
    6.4302   -1.2375    0.0000 C   0  0  0  0  0  0  0  0  0  0  0  0
    6.8005   -0.5003    0.0000 H   0  0  0  0  0  0  0  0  0  0  0  0
    6.0600   -0.5003    0.0000 H   0  0  0  0  0  0  0  0  0  0  0  0
    7.1447   -1.6500    0.0000 O   0  0  0  0  0  0  0  0  0  0  0  0
    7.1447   -2.4750    0.0000 C   0  0  0  0  0  0  0  0  0  0  0  0
    7.5981   -3.1643    0.0000 H   0  0  0  0  0  0  0  0  0  0  0  0
    7.9683   -2.5230    0.0000 H   0  0  0  0  0  0  0  0  0  0  0  0
    6.4302   -2.8875    0.0000 C   0  0  0  0  0  0  0  0  0  0  0  0
    6.0600   -3.6247    0.0000 H   0  0  0  0  0  0  0  0  0  0  0  0
    6.8005   -3.6247    0.0000 H   0  0  0  0  0  0  0  0  0  0  0  0
    5.0013   -3.7125    0.0000 C   0  0  0  0  0  0  0  0  0  0  0  0
    5.7158   -4.1250    0.0000 H   0  0  0  0  0  0  0  0  0  0  0  0
    4.2868   -4.1250    0.0000 C   0  0  0  0  0  0  0  0  0  0  0  0
    4.2868   -4.9500    0.0000 H   0  0  0  0  0  0  0  0  0  0  0  0
    1.4289   -4.1250    0.0000 N   0  0  0  0  0  0  0  0  0  0  0  0
    0.7145   -3.7125    0.0000 C   0  0  0  0  0  0  0  0  0  0  0  0
    0.0000   -4.1250    0.0000 N   0  0  0  0  0  0  0  0  0  0  0  0
   -0.7145   -3.7125    0.0000 H   0  0  0  0  0  0  0  0  0  0  0  0
    0.0000   -4.9500    0.0000 C   0  0  0  0  0  0  0  0  0  0  0  0
    0.4533   -5.6393    0.0000 H   0  0  0  0  0  0  0  0  0  0  0  0
    0.8236   -4.9980    0.0000 H   0  0  0  0  0  0  0  0  0  0  0  0
   -0.7145   -5.3625    0.0000 C   0  0  0  0  0  0  0  0  0  0  0  0
   -0.7145   -6.1875    0.0000 C   0  0  0  0  0  0  0  0  0  0  0  0
   -0.0000   -6.6000    0.0000 F   0  0  0  0  0  0  0  0  0  0  0  0
   -1.4289   -6.6000    0.0000 C   0  0  0  0  0  0  0  0  0  0  0  0
   -1.4289   -7.4250    0.0000 H   0  0  0  0  0  0  0  0  0  0  0  0
   -2.1434   -6.1875    0.0000 C   0  0  0  0  0  0  0  0  0  0  0  0
   -2.8579   -6.6000    0.0000 H   0  0  0  0  0  0  0  0  0  0  0  0
   -2.1434   -5.3625    0.0000 C   0  0  0  0  0  0  0  0  0  0  0  0
   -2.8579   -4.9500    0.0000 F   0  0  0  0  0  0  0  0  0  0  0  0
   -1.4289   -4.9500    0.0000 C   0  0  0  0  0  0  0  0  0  0  0  0
   -1.4289   -4.1250    0.0000 F   0  0  0  0  0  0  0  0  0  0  0  0
    0.7145   -2.8875    0.0000 C   0  0  0  0  0  0  0  0  0  0  0  0
    0.0000   -2.4750    0.0000 C   0  0  0  0  0  0  0  0  0  0  0  0
    0.0000   -1.6500    0.0000 O   0  0  0  0  0  0  0  0  0  0  0  0
   -0.7145   -2.8875    0.0000 N   0  0  0  0  0  0  0  0  0  0  0  0
   -1.1678   -2.1982    0.0000 H   0  0  0  0  0  0  0  0  0  0  0  0
   -1.5381   -2.8395    0.0000 H   0  0  0  0  0  0  0  0  0  0  0  0
  1  2  1  0  0  0  0
  2  3  4  0  0  0  0
  3  4  4  0  0  0  0
  4  5  1  0  0  0  0
  5  6  1  0  0  0  0
  5  7  1  0  0  0  0
  7  8  4  0  0  0  0
  8  9  1  0  0  0  0
  8 10  4  0  0  0  0
 10 11  1  0  0  0  0
 10 12  4  0  0  0  0
 12 13  1  0  0  0  0
 13 14  1  0  0  0  0
 14 15  1  0  0  0  0
 14 16  1  0  0  0  0
 14 17  1  0  0  0  0
 17 18  1  0  0  0  0
 17 19  1  0  0  0  0
 17 20  1  0  0  0  0
 20 21  1  0  0  0  0
 21 22  1  0  0  0  0
 21 23  1  0  0  0  0
 21 24  1  0  0  0  0
 13 24  1  0  0  0  0
 24 25  1  0  0  0  0
 24 26  1  0  0  0  0
 12 27  4  0  0  0  0
 27 28  1  0  0  0  0
 27 29  4  0  0  0  0
  7 29  4  0  0  0  0
 29 30  1  0  0  0  0
  4 31  4  0  0  0  0
 31 32  4  0  0  0  0
 32 33  1  0  0  0  0
 33 34  1  0  0  0  0
 33 35  1  0  0  0  0
 35 36  1  0  0  0  0
 35 37  1  0  0  0  0
 35 38  1  0  0  0  0
 38 39  4  0  0  0  0
 39 40  1  0  0  0  0
 39 41  4  0  0  0  0
 41 42  1  0  0  0  0
 41 43  4  0  0  0  0
 43 44  1  0  0  0  0
 43 45  4  0  0  0  0
 45 46  1  0  0  0  0
 45 47  4  0  0  0  0
 38 47  4  0  0  0  0
 47 48  1  0  0  0  0
 32 49  4  0  0  0  0
  2 49  4  0  0  0  0
 49 50  1  0  0  0  0
 50 51  2  0  0  0  0
 50 52  1  0  0  0  0
 52 53  1  0  0  0  0
 52 54  1  0  0  0  0
M  END
> <pActivity>
9.154901959985741

$$$$
CHEMBL2204366
  Mrv2316 04152410472D          

 62 65  0  0  0  0            999 V2000
   -6.3587   -4.2703    0.0000 H   0  0  0  0  0  0  0  0  0  0  0  0
   -5.5337   -4.2703    0.0000 C   0  0  0  0  0  0  0  0  0  0  0  0
   -5.1212   -3.5558    0.0000 N   0  0  0  0  0  0  0  0  0  0  0  0
   -4.2962   -3.5558    0.0000 C   0  0  0  0  0  0  0  0  0  0  0  0
   -3.8837   -2.8414    0.0000 C   0  0  0  0  0  0  0  0  0  0  0  0
   -3.9317   -2.0178    0.0000 H   0  0  0  0  0  0  0  0  0  0  0  0
   -4.5730   -2.3880    0.0000 H   0  0  0  0  0  0  0  0  0  0  0  0
   -3.0587   -2.8414    0.0000 C   0  0  0  0  0  0  0  0  0  0  0  0
   -3.0107   -3.6650    0.0000 H   0  0  0  0  0  0  0  0  0  0  0  0
   -2.3694   -3.2947    0.0000 H   0  0  0  0  0  0  0  0  0  0  0  0
   -2.6462   -2.1269    0.0000 N   0  0  0  0  0  0  0  0  0  0  0  0
   -3.0587   -1.4124    0.0000 H   0  0  0  0  0  0  0  0  0  0  0  0
   -1.8212   -2.1269    0.0000 C   0  0  0  0  0  0  0  0  0  0  0  0
   -1.4087   -2.8414    0.0000 O   0  0  0  0  0  0  0  0  0  0  0  0
   -1.4087   -1.4124    0.0000 C   0  0  0  0  0  0  0  0  0  0  0  0
   -1.8212   -0.6979    0.0000 N   0  0  0  0  0  0  0  0  0  0  0  0
   -1.4087    0.0165    0.0000 C   0  0  0  0  0  0  0  0  0  0  0  0
   -1.8212    0.7310    0.0000 C   0  0  0  0  0  0  0  0  0  0  0  0
   -2.6462    0.7310    0.0000 O   0  0  0  0  0  0  0  0  0  0  0  0
   -1.4087    1.4455    0.0000 N   0  0  0  0  0  0  0  0  0  0  0  0
   -0.5837    1.4455    0.0000 H   0  0  0  0  0  0  0  0  0  0  0  0
   -1.8212    2.1599    0.0000 C   0  0  0  0  0  0  0  0  0  0  0  0
   -2.2337    1.4455    0.0000 H   0  0  0  0  0  0  0  0  0  0  0  0
   -2.6462    2.1599    0.0000 C   0  0  0  0  0  0  0  0  0  0  0  0
   -2.4327    2.9568    0.0000 H   0  0  0  0  0  0  0  0  0  0  0  0
   -3.3607    2.5724    0.0000 H   0  0  0  0  0  0  0  0  0  0  0  0
   -3.2296    1.5766    0.0000 H   0  0  0  0  0  0  0  0  0  0  0  0
   -1.4087    2.8744    0.0000 C   0  0  0  0  0  0  0  0  0  0  0  0
   -2.2337    2.8744    0.0000 H   0  0  0  0  0  0  0  0  0  0  0  0
   -1.8212    3.5889    0.0000 C   0  0  0  0  0  0  0  0  0  0  0  0
   -1.0127    3.7532    0.0000 H   0  0  0  0  0  0  0  0  0  0  0  0
   -1.7203    4.4077    0.0000 H   0  0  0  0  0  0  0  0  0  0  0  0
   -2.5656    3.9446    0.0000 H   0  0  0  0  0  0  0  0  0  0  0  0
   -0.5837    2.8744    0.0000 C   0  0  0  0  0  0  0  0  0  0  0  0
   -0.5837    2.0494    0.0000 H   0  0  0  0  0  0  0  0  0  0  0  0
    0.2413    2.8744    0.0000 H   0  0  0  0  0  0  0  0  0  0  0  0
   -0.5837    3.6994    0.0000 H   0  0  0  0  0  0  0  0  0  0  0  0
   -0.5837    0.0165    0.0000 C   0  0  0  0  0  0  0  0  0  0  0  0
   -0.1712    0.7310    0.0000 H   0  0  0  0  0  0  0  0  0  0  0  0
   -0.1712   -0.6979    0.0000 C   0  0  0  0  0  0  0  0  0  0  0  0
    0.6538   -0.6979    0.0000 C   0  0  0  0  0  0  0  0  0  0  0  0
    1.1387   -0.0305    0.0000 S   0  0  0  0  0  0  0  0  0  0  0  0
    1.9233   -0.2854    0.0000 C   0  0  0  0  0  0  0  0  0  0  0  0
    2.6378    0.1271    0.0000 C   0  0  0  0  0  0  0  0  0  0  0  0
    2.6378    0.9521    0.0000 H   0  0  0  0  0  0  0  0  0  0  0  0
    3.3523   -0.2854    0.0000 C   0  0  0  0  0  0  0  0  0  0  0  0
    4.0668    0.1271    0.0000 H   0  0  0  0  0  0  0  0  0  0  0  0
    3.3523   -1.1104    0.0000 C   0  0  0  0  0  0  0  0  0  0  0  0
    4.0668   -1.5229    0.0000 H   0  0  0  0  0  0  0  0  0  0  0  0
    2.6378   -1.5229    0.0000 C   0  0  0  0  0  0  0  0  0  0  0  0
    2.6378   -2.3479    0.0000 H   0  0  0  0  0  0  0  0  0  0  0  0
    1.9233   -1.1104    0.0000 C   0  0  0  0  0  0  0  0  0  0  0  0
    1.1387   -1.3654    0.0000 C   0  0  0  0  0  0  0  0  0  0  0  0
    0.8838   -2.1500    0.0000 H   0  0  0  0  0  0  0  0  0  0  0  0
   -0.5837   -1.4124    0.0000 C   0  0  0  0  0  0  0  0  0  0  0  0
   -0.1712   -2.1269    0.0000 H   0  0  0  0  0  0  0  0  0  0  0  0
   -3.8837   -4.2703    0.0000 C   0  0  0  0  0  0  0  0  0  0  0  0
   -3.0587   -4.2703    0.0000 H   0  0  0  0  0  0  0  0  0  0  0  0
   -4.2962   -4.9848    0.0000 C   0  0  0  0  0  0  0  0  0  0  0  0
   -3.8837   -5.6992    0.0000 H   0  0  0  0  0  0  0  0  0  0  0  0
   -5.1212   -4.9848    0.0000 C   0  0  0  0  0  0  0  0  0  0  0  0
   -5.5337   -5.6992    0.0000 H   0  0  0  0  0  0  0  0  0  0  0  0
  1  2  1  0  0  0  0
  2  3  4  0  0  0  0
  3  4  4  0  0  0  0
  4  5  1  0  0  0  0
  5  6  1  0  0  0  0
  5  7  1  0  0  0  0
  5  8  1  0  0  0  0
  8  9  1  0  0  0  0
  8 10  1  0  0  0  0
  8 11  1  0  0  0  0
 11 12  1  0  0  0  0
 11 13  1  0  0  0  0
 13 14  2  0  0  0  0
 13 15  1  0  0  0  0
 15 16  4  0  0  0  0
 16 17  4  0  0  0  0
 17 18  1  0  0  0  0
 18 19  2  0  0  0  0
 18 20  1  0  0  0  0
 20 21  1  0  0  0  0
 20 22  1  0  0  0  0
 22 23  1  0  0  0  0
 22 24  1  0  0  0  0
 24 25  1  0  0  0  0
 24 26  1  0  0  0  0
 24 27  1  0  0  0  0
 22 28  1  0  0  0  0
 28 29  1  0  0  0  0
 28 30  1  0  0  0  0
 30 31  1  0  0  0  0
 30 32  1  0  0  0  0
 30 33  1  0  0  0  0
 28 34  1  0  0  0  0
 34 35  1  0  0  0  0
 34 36  1  0  0  0  0
 34 37  1  0  0  0  0
 17 38  4  0  0  0  0
 38 39  1  0  0  0  0
 38 40  4  0  0  0  0
 40 41  1  0  0  0  0
 41 42  4  0  0  0  0
 42 43  4  0  0  0  0
 43 44  4  0  0  0  0
 44 45  1  0  0  0  0
 44 46  4  0  0  0  0
 46 47  1  0  0  0  0
 46 48  4  0  0  0  0
 48 49  1  0  0  0  0
 48 50  4  0  0  0  0
 50 51  1  0  0  0  0
 50 52  4  0  0  0  0
 43 52  4  0  0  0  0
 52 53  4  0  0  0  0
 41 53  4  0  0  0  0
 53 54  1  0  0  0  0
 40 55  4  0  0  0  0
 15 55  4  0  0  0  0
 55 56  1  0  0  0  0
  4 57  4  0  0  0  0
 57 58  1  0  0  0  0
 57 59  4  0  0  0  0
 59 60  1  0  0  0  0
 59 61  4  0  0  0  0
  2 61  4  0  0  0  0
 61 62  1  0  0  0  0
M  END
> <pActivity>
5.494850021680094

$$$$
CHEMBL3741753
  Mrv2316 04152410472D          

107109  0  0  0  0            999 V2000
    9.8008  -11.1819    0.0000 H   0  0  0  0  0  0  0  0  0  0  0  0
    9.2607  -10.5583    0.0000 O   0  0  0  0  0  0  0  0  0  0  0  0
    8.4506  -10.7142    0.0000 P   0  0  0  0  0  0  0  0  0  0  0  0
    8.2946   -9.9040    0.0000 O   0  0  0  0  0  0  0  0  0  0  0  0
    8.6065  -11.5243    0.0000 O   0  0  0  0  0  0  0  0  0  0  0  0
    7.9828  -12.0644    0.0000 H   0  0  0  0  0  0  0  0  0  0  0  0
    7.6404  -10.8701    0.0000 O   0  0  0  0  0  0  0  0  0  0  0  0
    7.1003  -10.2464    0.0000 C   0  0  0  0  0  0  0  0  0  0  0  0
    6.2902  -10.4023    0.0000 C   0  0  0  0  0  0  0  0  0  0  0  0
    6.0202  -11.1819    0.0000 H   0  0  0  0  0  0  0  0  0  0  0  0
    5.7501   -9.7787    0.0000 C   0  0  0  0  0  0  0  0  0  0  0  0
    4.9400   -9.9346    0.0000 H   0  0  0  0  0  0  0  0  0  0  0  0
    6.0202   -8.9991    0.0000 C   0  0  0  0  0  0  0  0  0  0  0  0
    5.4801   -8.3755    0.0000 C   0  0  0  0  0  0  0  0  0  0  0  0
    4.6861   -8.1512    0.0000 H   0  0  0  0  0  0  0  0  0  0  0  0
    4.8261   -8.8784    0.0000 H   0  0  0  0  0  0  0  0  0  0  0  0
    5.7501   -7.5960    0.0000 C   0  0  0  0  0  0  0  0  0  0  0  0
    4.9400   -7.7519    0.0000 H   0  0  0  0  0  0  0  0  0  0  0  0
    5.2100   -6.9723    0.0000 C   0  0  0  0  0  0  0  0  0  0  0  0
    4.3999   -7.1282    0.0000 O   0  0  0  0  0  0  0  0  0  0  0  0
    5.4801   -6.1928    0.0000 N   0  0  0  0  0  0  0  0  0  0  0  0
    6.0202   -6.8164    0.0000 H   0  0  0  0  0  0  0  0  0  0  0  0
    4.9400   -5.5691    0.0000 C   0  0  0  0  0  0  0  0  0  0  0  0
    5.7501   -5.4132    0.0000 H   0  0  0  0  0  0  0  0  0  0  0  0
    5.2100   -4.7896    0.0000 C   0  0  0  0  0  0  0  0  0  0  0  0
    6.0202   -4.6337    0.0000 O   0  0  0  0  0  0  0  0  0  0  0  0
    4.6699   -4.1659    0.0000 N   0  0  0  0  0  0  0  0  0  0  0  0
    3.8479   -4.2363    0.0000 C   0  0  0  0  0  0  0  0  0  0  0  0
    3.1400   -4.6599    0.0000 H   0  0  0  0  0  0  0  0  0  0  0  0
    3.8032   -5.0601    0.0000 H   0  0  0  0  0  0  0  0  0  0  0  0
    3.5270   -3.4763    0.0000 C   0  0  0  0  0  0  0  0  0  0  0  0
    2.9054   -2.9339    0.0000 H   0  0  0  0  0  0  0  0  0  0  0  0
    2.7297   -3.6883    0.0000 H   0  0  0  0  0  0  0  0  0  0  0  0
    4.1506   -2.9362    0.0000 C   0  0  0  0  0  0  0  0  0  0  0  0
    4.4744   -2.1774    0.0000 H   0  0  0  0  0  0  0  0  0  0  0  0
    3.7026   -2.2435    0.0000 H   0  0  0  0  0  0  0  0  0  0  0  0
    4.8570   -3.3624    0.0000 C   0  0  0  0  0  0  0  0  0  0  0  0
    5.4880   -3.8939    0.0000 H   0  0  0  0  0  0  0  0  0  0  0  0
    5.6170   -3.0415    0.0000 C   0  0  0  0  0  0  0  0  0  0  0  0
    6.2750   -3.5392    0.0000 O   0  0  0  0  0  0  0  0  0  0  0  0
    5.7191   -2.2228    0.0000 N   0  0  0  0  0  0  0  0  0  0  0  0
    5.0611   -1.7251    0.0000 H   0  0  0  0  0  0  0  0  0  0  0  0
    6.4791   -1.9019    0.0000 C   0  0  0  0  0  0  0  0  0  0  0  0
    5.8212   -1.4042    0.0000 H   0  0  0  0  0  0  0  0  0  0  0  0
    6.5812   -1.0832    0.0000 C   0  0  0  0  0  0  0  0  0  0  0  0
    5.9232   -0.5855    0.0000 O   0  0  0  0  0  0  0  0  0  0  0  0
    7.3412   -0.7623    0.0000 N   0  0  0  0  0  0  0  0  0  0  0  0
    7.2391   -1.5809    0.0000 H   0  0  0  0  0  0  0  0  0  0  0  0
    7.4433    0.0564    0.0000 C   0  0  0  0  0  0  0  0  0  0  0  0
    6.6832   -0.2646    0.0000 H   0  0  0  0  0  0  0  0  0  0  0  0
    6.7853    0.5541    0.0000 C   0  0  0  0  0  0  0  0  0  0  0  0
    6.8874    1.3728    0.0000 O   0  0  0  0  0  0  0  0  0  0  0  0
    6.0253    0.2332    0.0000 N   0  0  0  0  0  0  0  0  0  0  0  0
    5.6607    0.9732    0.0000 H   0  0  0  0  0  0  0  0  0  0  0  0
    5.2139    0.3827    0.0000 H   0  0  0  0  0  0  0  0  0  0  0  0
    8.2033    0.3773    0.0000 C   0  0  0  0  0  0  0  0  0  0  0  0
    8.5679   -0.3627    0.0000 H   0  0  0  0  0  0  0  0  0  0  0  0
    9.0146    0.2278    0.0000 H   0  0  0  0  0  0  0  0  0  0  0  0
    8.3053    1.1960    0.0000 C   0  0  0  0  0  0  0  0  0  0  0  0
    7.9407    1.9361    0.0000 H   0  0  0  0  0  0  0  0  0  0  0  0
    7.4940    1.3455    0.0000 H   0  0  0  0  0  0  0  0  0  0  0  0
    9.0654    1.5169    0.0000 C   0  0  0  0  0  0  0  0  0  0  0  0
    9.1674    2.3356    0.0000 O   0  0  0  0  0  0  0  0  0  0  0  0
    9.7233    1.0192    0.0000 N   0  0  0  0  0  0  0  0  0  0  0  0
    9.6212    0.2005    0.0000 H   0  0  0  0  0  0  0  0  0  0  0  0
   10.4833    1.3401    0.0000 H   0  0  0  0  0  0  0  0  0  0  0  0
    7.1371   -2.3996    0.0000 C   0  0  0  0  0  0  0  0  0  0  0  0
    6.6784   -3.0854    0.0000 H   0  0  0  0  0  0  0  0  0  0  0  0
    7.4133   -3.1770    0.0000 H   0  0  0  0  0  0  0  0  0  0  0  0
    7.8971   -2.0787    0.0000 C   0  0  0  0  0  0  0  0  0  0  0  0
    7.9991   -1.2600    0.0000 C   0  0  0  0  0  0  0  0  0  0  0  0
    8.1012   -0.4413    0.0000 H   0  0  0  0  0  0  0  0  0  0  0  0
    8.7592   -0.9391    0.0000 C   0  0  0  0  0  0  0  0  0  0  0  0
    9.4297   -0.4585    0.0000 H   0  0  0  0  0  0  0  0  0  0  0  0
    9.4171   -1.4368    0.0000 C   0  0  0  0  0  0  0  0  0  0  0  0
   10.1771   -1.1158    0.0000 H   0  0  0  0  0  0  0  0  0  0  0  0
    9.3150   -2.2554    0.0000 C   0  0  0  0  0  0  0  0  0  0  0  0
    9.9730   -2.7532    0.0000 H   0  0  0  0  0  0  0  0  0  0  0  0
    8.5550   -2.5764    0.0000 C   0  0  0  0  0  0  0  0  0  0  0  0
    8.4530   -3.3950    0.0000 H   0  0  0  0  0  0  0  0  0  0  0  0
    4.1298   -5.7250    0.0000 C   0  0  0  0  0  0  0  0  0  0  0  0
    3.3064   -5.7758    0.0000 H   0  0  0  0  0  0  0  0  0  0  0  0
    4.4976   -4.9865    0.0000 H   0  0  0  0  0  0  0  0  0  0  0  0
    3.8598   -6.5046    0.0000 C   0  0  0  0  0  0  0  0  0  0  0  0
    4.6699   -6.3487    0.0000 H   0  0  0  0  0  0  0  0  0  0  0  0
    3.5898   -7.2841    0.0000 H   0  0  0  0  0  0  0  0  0  0  0  0
    3.0497   -6.6605    0.0000 C   0  0  0  0  0  0  0  0  0  0  0  0
    2.4887   -6.0556    0.0000 H   0  0  0  0  0  0  0  0  0  0  0  0
    2.2423   -6.8302    0.0000 H   0  0  0  0  0  0  0  0  0  0  0  0
    2.7796   -7.4400    0.0000 C   0  0  0  0  0  0  0  0  0  0  0  0
    2.6490   -8.2546    0.0000 H   0  0  0  0  0  0  0  0  0  0  0  0
    3.2032   -8.1480    0.0000 H   0  0  0  0  0  0  0  0  0  0  0  0
    1.9695   -7.5960    0.0000 N   0  0  0  0  0  0  0  0  0  0  0  0
    1.1695   -7.3945    0.0000 H   0  0  0  0  0  0  0  0  0  0  0  0
    1.3414   -8.1309    0.0000 H   0  0  0  0  0  0  0  0  0  0  0  0
    6.5602   -7.4400    0.0000 N   0  0  0  0  0  0  0  0  0  0  0  0
    7.1003   -8.0637    0.0000 H   0  0  0  0  0  0  0  0  0  0  0  0
    6.8303   -6.6605    0.0000 C   0  0  0  0  0  0  0  0  0  0  0  0
    6.2902   -6.0369    0.0000 O   0  0  0  0  0  0  0  0  0  0  0  0
    7.6404   -6.5046    0.0000 C   0  0  0  0  0  0  0  0  0  0  0  0
    7.7963   -7.3147    0.0000 H   0  0  0  0  0  0  0  0  0  0  0  0
    8.4506   -6.3487    0.0000 H   0  0  0  0  0  0  0  0  0  0  0  0
    7.4845   -5.6944    0.0000 H   0  0  0  0  0  0  0  0  0  0  0  0
    6.8303   -8.8432    0.0000 C   0  0  0  0  0  0  0  0  0  0  0  0
    7.6404   -8.6873    0.0000 H   0  0  0  0  0  0  0  0  0  0  0  0
    7.3704   -9.4669    0.0000 C   0  0  0  0  0  0  0  0  0  0  0  0
    8.1499   -9.7369    0.0000 H   0  0  0  0  0  0  0  0  0  0  0  0
  1  2  1  0  0  0  0
  2  3  1  0  0  0  0
  3  4  2  0  0  0  0
  3  5  1  0  0  0  0
  5  6  1  0  0  0  0
  3  7  1  0  0  0  0
  7  8  1  0  0  0  0
  8  9  4  0  0  0  0
  9 10  1  0  0  0  0
  9 11  4  0  0  0  0
 11 12  1  0  0  0  0
 11 13  4  0  0  0  0
 13 14  1  0  0  0  0
 14 15  1  0  0  0  0
 14 16  1  0  0  0  0
 14 17  1  0  0  0  0
 17 18  1  0  0  0  0
 17 19  1  0  0  0  0
 19 20  2  0  0  0  0
 19 21  1  0  0  0  0
 21 22  1  0  0  0  0
 21 23  1  0  0  0  0
 23 24  1  0  0  0  0
 23 25  1  0  0  0  0
 25 26  2  0  0  0  0
 25 27  1  0  0  0  0
 27 28  1  0  0  0  0
 28 29  1  0  0  0  0
 28 30  1  0  0  0  0
 28 31  1  0  0  0  0
 31 32  1  0  0  0  0
 31 33  1  0  0  0  0
 31 34  1  0  0  0  0
 34 35  1  0  0  0  0
 34 36  1  0  0  0  0
 34 37  1  0  0  0  0
 27 37  1  0  0  0  0
 37 38  1  0  0  0  0
 37 39  1  0  0  0  0
 39 40  2  0  0  0  0
 39 41  1  0  0  0  0
 41 42  1  0  0  0  0
 41 43  1  0  0  0  0
 43 44  1  0  0  0  0
 43 45  1  0  0  0  0
 45 46  2  0  0  0  0
 45 47  1  0  0  0  0
 47 48  1  0  0  0  0
 47 49  1  0  0  0  0
 49 50  1  0  0  0  0
 49 51  1  0  0  0  0
 51 52  2  0  0  0  0
 51 53  1  0  0  0  0
 53 54  1  0  0  0  0
 53 55  1  0  0  0  0
 49 56  1  0  0  0  0
 56 57  1  0  0  0  0
 56 58  1  0  0  0  0
 56 59  1  0  0  0  0
 59 60  1  0  0  0  0
 59 61  1  0  0  0  0
 59 62  1  0  0  0  0
 62 63  2  0  0  0  0
 62 64  1  0  0  0  0
 64 65  1  0  0  0  0
 64 66  1  0  0  0  0
 43 67  1  0  0  0  0
 67 68  1  0  0  0  0
 67 69  1  0  0  0  0
 67 70  1  0  0  0  0
 70 71  4  0  0  0  0
 71 72  1  0  0  0  0
 71 73  4  0  0  0  0
 73 74  1  0  0  0  0
 73 75  4  0  0  0  0
 75 76  1  0  0  0  0
 75 77  4  0  0  0  0
 77 78  1  0  0  0  0
 77 79  4  0  0  0  0
 70 79  4  0  0  0  0
 79 80  1  0  0  0  0
 23 81  1  0  0  0  0
 81 82  1  0  0  0  0
 81 83  1  0  0  0  0
 81 84  1  0  0  0  0
 84 85  1  0  0  0  0
 84 86  1  0  0  0  0
 84 87  1  0  0  0  0
 87 88  1  0  0  0  0
 87 89  1  0  0  0  0
 87 90  1  0  0  0  0
 90 91  1  0  0  0  0
 90 92  1  0  0  0  0
 90 93  1  0  0  0  0
 93 94  1  0  0  0  0
 93 95  1  0  0  0  0
 17 96  1  0  0  0  0
 96 97  1  0  0  0  0
 96 98  1  0  0  0  0
 98 99  2  0  0  0  0
 98100  1  0  0  0  0
100101  1  0  0  0  0
100102  1  0  0  0  0
100103  1  0  0  0  0
 13104  4  0  0  0  0
104105  1  0  0  0  0
104106  4  0  0  0  0
  8106  4  0  0  0  0
106107  1  0  0  0  0
M  END
> <pActivity>
5.376750709602099

$$$$
CHEMBL227803
  Mrv2316 04152410472D          

 54 56  0  0  0  0            999 V2000
    7.1447    0.0000    0.0000 H   0  0  0  0  0  0  0  0  0  0  0  0
    6.4302   -0.4125    0.0000 O   0  0  0  0  0  0  0  0  0  0  0  0
    6.4302   -1.2375    0.0000 C   0  0  0  0  0  0  0  0  0  0  0  0
    7.1447   -1.6500    0.0000 C   0  0  0  0  0  0  0  0  0  0  0  0
    7.8592   -1.2375    0.0000 H   0  0  0  0  0  0  0  0  0  0  0  0
    7.1447   -2.4750    0.0000 C   0  0  0  0  0  0  0  0  0  0  0  0
    7.8592   -2.8875    0.0000 H   0  0  0  0  0  0  0  0  0  0  0  0
    6.4302   -2.8875    0.0000 C   0  0  0  0  0  0  0  0  0  0  0  0
    6.4302   -3.7125    0.0000 C   0  0  0  0  0  0  0  0  0  0  0  0
    5.6066   -3.7605    0.0000 H   0  0  0  0  0  0  0  0  0  0  0  0
    5.9769   -4.4018    0.0000 H   0  0  0  0  0  0  0  0  0  0  0  0
    7.1447   -4.1250    0.0000 C   0  0  0  0  0  0  0  0  0  0  0  0
    7.9683   -4.0770    0.0000 H   0  0  0  0  0  0  0  0  0  0  0  0
    7.5981   -3.4357    0.0000 H   0  0  0  0  0  0  0  0  0  0  0  0
    7.1447   -4.9500    0.0000 N   0  0  0  0  0  0  0  0  0  0  0  0
    6.4302   -5.3625    0.0000 H   0  0  0  0  0  0  0  0  0  0  0  0
    7.8592   -5.3625    0.0000 C   0  0  0  0  0  0  0  0  0  0  0  0
    8.5737   -4.9500    0.0000 N   0  0  0  0  0  0  0  0  0  0  0  0
    9.2881   -5.3625    0.0000 C   0  0  0  0  0  0  0  0  0  0  0  0
   10.0026   -4.9500    0.0000 H   0  0  0  0  0  0  0  0  0  0  0  0
    9.2881   -6.1875    0.0000 C   0  0  0  0  0  0  0  0  0  0  0  0
   10.0026   -6.6000    0.0000 C   0  0  0  0  0  0  0  0  0  0  0  0
   10.0026   -7.4250    0.0000 O   0  0  0  0  0  0  0  0  0  0  0  0
   10.7171   -6.1875    0.0000 N   0  0  0  0  0  0  0  0  0  0  0  0
   10.7171   -5.3625    0.0000 C   0  0  0  0  0  0  0  0  0  0  0  0
   11.4315   -5.7750    0.0000 H   0  0  0  0  0  0  0  0  0  0  0  0
   11.4315   -4.9500    0.0000 H   0  0  0  0  0  0  0  0  0  0  0  0
   10.7171   -4.5375    0.0000 H   0  0  0  0  0  0  0  0  0  0  0  0
   11.4315   -6.6000    0.0000 C   0  0  0  0  0  0  0  0  0  0  0  0
   10.8482   -7.1834    0.0000 H   0  0  0  0  0  0  0  0  0  0  0  0
   11.8440   -7.3145    0.0000 H   0  0  0  0  0  0  0  0  0  0  0  0
   12.2284   -6.3865    0.0000 H   0  0  0  0  0  0  0  0  0  0  0  0
    8.5737   -6.6000    0.0000 C   0  0  0  0  0  0  0  0  0  0  0  0
    8.5737   -7.4250    0.0000 N   0  0  0  0  0  0  0  0  0  0  0  0
    9.2881   -7.8375    0.0000 H   0  0  0  0  0  0  0  0  0  0  0  0
    7.8592   -7.8375    0.0000 C   0  0  0  0  0  0  0  0  0  0  0  0
    7.8592   -8.6625    0.0000 C   0  0  0  0  0  0  0  0  0  0  0  0
    8.5737   -9.0750    0.0000 H   0  0  0  0  0  0  0  0  0  0  0  0
    7.1447   -9.0750    0.0000 C   0  0  0  0  0  0  0  0  0  0  0  0
    7.1447   -9.9000    0.0000 H   0  0  0  0  0  0  0  0  0  0  0  0
    6.4302   -8.6625    0.0000 C   0  0  0  0  0  0  0  0  0  0  0  0
    5.7158   -9.0750    0.0000 H   0  0  0  0  0  0  0  0  0  0  0  0
    6.4302   -7.8375    0.0000 C   0  0  0  0  0  0  0  0  0  0  0  0
    5.7158   -7.4250    0.0000 C   0  0  0  0  0  0  0  0  0  0  0  0
    6.1283   -6.7105    0.0000 H   0  0  0  0  0  0  0  0  0  0  0  0
    5.0013   -7.0125    0.0000 H   0  0  0  0  0  0  0  0  0  0  0  0
    5.3033   -8.1395    0.0000 H   0  0  0  0  0  0  0  0  0  0  0  0
    7.1447   -7.4250    0.0000 C   0  0  0  0  0  0  0  0  0  0  0  0
    7.1447   -6.6000    0.0000 H   0  0  0  0  0  0  0  0  0  0  0  0
    7.8592   -6.1875    0.0000 N   0  0  0  0  0  0  0  0  0  0  0  0
    5.7158   -2.4750    0.0000 C   0  0  0  0  0  0  0  0  0  0  0  0
    5.0013   -2.8875    0.0000 H   0  0  0  0  0  0  0  0  0  0  0  0
    5.7158   -1.6500    0.0000 C   0  0  0  0  0  0  0  0  0  0  0  0
    5.0013   -1.2375    0.0000 H   0  0  0  0  0  0  0  0  0  0  0  0
  1  2  1  0  0  0  0
  2  3  1  0  0  0  0
  3  4  4  0  0  0  0
  4  5  1  0  0  0  0
  4  6  4  0  0  0  0
  6  7  1  0  0  0  0
  6  8  4  0  0  0  0
  8  9  1  0  0  0  0
  9 10  1  0  0  0  0
  9 11  1  0  0  0  0
  9 12  1  0  0  0  0
 12 13  1  0  0  0  0
 12 14  1  0  0  0  0
 12 15  1  0  0  0  0
 15 16  1  0  0  0  0
 15 17  1  0  0  0  0
 17 18  4  0  0  0  0
 18 19  4  0  0  0  0
 19 20  1  0  0  0  0
 19 21  4  0  0  0  0
 21 22  1  0  0  0  0
 22 23  2  0  0  0  0
 22 24  1  0  0  0  0
 24 25  1  0  0  0  0
 25 26  1  0  0  0  0
 25 27  1  0  0  0  0
 25 28  1  0  0  0  0
 24 29  1  0  0  0  0
 29 30  1  0  0  0  0
 29 31  1  0  0  0  0
 29 32  1  0  0  0  0
 21 33  4  0  0  0  0
 33 34  1  0  0  0  0
 34 35  1  0  0  0  0
 34 36  1  0  0  0  0
 36 37  4  0  0  0  0
 37 38  1  0  0  0  0
 37 39  4  0  0  0  0
 39 40  1  0  0  0  0
 39 41  4  0  0  0  0
 41 42  1  0  0  0  0
 41 43  4  0  0  0  0
 43 44  1  0  0  0  0
 44 45  1  0  0  0  0
 44 46  1  0  0  0  0
 44 47  1  0  0  0  0
 43 48  4  0  0  0  0
 36 48  4  0  0  0  0
 48 49  1  0  0  0  0
 33 50  4  0  0  0  0
 17 50  4  0  0  0  0
  8 51  4  0  0  0  0
 51 52  1  0  0  0  0
 51 53  4  0  0  0  0
  3 53  4  0  0  0  0
 53 54  1  0  0  0  0
M  END
> <pActivity>
5.086186147616282

$$$$
CHEMBL3741480
  Mrv2316 04152410472D          

 90 92  0  0  0  0            999 V2000
    2.3183  -10.7142    0.0000 H   0  0  0  0  0  0  0  0  0  0  0  0
    3.1284  -10.5583    0.0000 O   0  0  0  0  0  0  0  0  0  0  0  0
    3.3984   -9.7787    0.0000 P   0  0  0  0  0  0  0  0  0  0  0  0
    4.1780  -10.0487    0.0000 O   0  0  0  0  0  0  0  0  0  0  0  0
    2.6189   -9.5087    0.0000 O   0  0  0  0  0  0  0  0  0  0  0  0
    2.4630   -8.6985    0.0000 H   0  0  0  0  0  0  0  0  0  0  0  0
    3.6685   -8.9991    0.0000 O   0  0  0  0  0  0  0  0  0  0  0  0
    4.4786   -8.8432    0.0000 C   0  0  0  0  0  0  0  0  0  0  0  0
    4.7487   -8.0637    0.0000 C   0  0  0  0  0  0  0  0  0  0  0  0
    3.9385   -8.2196    0.0000 H   0  0  0  0  0  0  0  0  0  0  0  0
    5.5588   -7.9078    0.0000 C   0  0  0  0  0  0  0  0  0  0  0  0
    6.3689   -7.7519    0.0000 H   0  0  0  0  0  0  0  0  0  0  0  0
    6.0989   -8.5314    0.0000 C   0  0  0  0  0  0  0  0  0  0  0  0
    6.9090   -8.3755    0.0000 C   0  0  0  0  0  0  0  0  0  0  0  0
    7.1118   -9.1752    0.0000 H   0  0  0  0  0  0  0  0  0  0  0  0
    7.6715   -8.6904    0.0000 H   0  0  0  0  0  0  0  0  0  0  0  0
    7.1791   -7.5960    0.0000 C   0  0  0  0  0  0  0  0  0  0  0  0
    7.4491   -6.8164    0.0000 H   0  0  0  0  0  0  0  0  0  0  0  0
    6.6390   -6.9723    0.0000 C   0  0  0  0  0  0  0  0  0  0  0  0
    5.8288   -7.1282    0.0000 O   0  0  0  0  0  0  0  0  0  0  0  0
    6.9090   -6.1928    0.0000 N   0  0  0  0  0  0  0  0  0  0  0  0
    7.1791   -5.4132    0.0000 H   0  0  0  0  0  0  0  0  0  0  0  0
    6.3689   -5.5691    0.0000 C   0  0  0  0  0  0  0  0  0  0  0  0
    5.8288   -4.9455    0.0000 H   0  0  0  0  0  0  0  0  0  0  0  0
    6.6390   -4.7896    0.0000 C   0  0  0  0  0  0  0  0  0  0  0  0
    7.4491   -4.6337    0.0000 O   0  0  0  0  0  0  0  0  0  0  0  0
    6.0989   -4.1659    0.0000 N   0  0  0  0  0  0  0  0  0  0  0  0
    5.2769   -4.2363    0.0000 C   0  0  0  0  0  0  0  0  0  0  0  0
    4.4614   -4.3615    0.0000 H   0  0  0  0  0  0  0  0  0  0  0  0
    4.7696   -4.8869    0.0000 H   0  0  0  0  0  0  0  0  0  0  0  0
    4.9559   -3.4763    0.0000 C   0  0  0  0  0  0  0  0  0  0  0  0
    4.3343   -2.9339    0.0000 H   0  0  0  0  0  0  0  0  0  0  0  0
    4.1587   -3.6883    0.0000 H   0  0  0  0  0  0  0  0  0  0  0  0
    5.5796   -2.9362    0.0000 C   0  0  0  0  0  0  0  0  0  0  0  0
    5.9034   -2.1774    0.0000 H   0  0  0  0  0  0  0  0  0  0  0  0
    5.1315   -2.2435    0.0000 H   0  0  0  0  0  0  0  0  0  0  0  0
    6.2860   -3.3624    0.0000 C   0  0  0  0  0  0  0  0  0  0  0  0
    6.9170   -3.8939    0.0000 H   0  0  0  0  0  0  0  0  0  0  0  0
    7.0460   -3.0415    0.0000 C   0  0  0  0  0  0  0  0  0  0  0  0
    7.7039   -3.5392    0.0000 O   0  0  0  0  0  0  0  0  0  0  0  0
    7.1480   -2.2228    0.0000 N   0  0  0  0  0  0  0  0  0  0  0  0
    6.4901   -1.7251    0.0000 H   0  0  0  0  0  0  0  0  0  0  0  0
    7.9081   -1.9019    0.0000 C   0  0  0  0  0  0  0  0  0  0  0  0
    7.8060   -2.7205    0.0000 H   0  0  0  0  0  0  0  0  0  0  0  0
    8.5660   -2.3996    0.0000 C   0  0  0  0  0  0  0  0  0  0  0  0
    9.3260   -2.0787    0.0000 O   0  0  0  0  0  0  0  0  0  0  0  0
    8.4639   -3.2183    0.0000 N   0  0  0  0  0  0  0  0  0  0  0  0
    8.8285   -3.9583    0.0000 H   0  0  0  0  0  0  0  0  0  0  0  0
    9.2753   -3.3678    0.0000 H   0  0  0  0  0  0  0  0  0  0  0  0
    8.0101   -1.0832    0.0000 C   0  0  0  0  0  0  0  0  0  0  0  0
    7.6455   -0.3431    0.0000 H   0  0  0  0  0  0  0  0  0  0  0  0
    7.1988   -0.9337    0.0000 H   0  0  0  0  0  0  0  0  0  0  0  0
    8.7701   -0.7623    0.0000 C   0  0  0  0  0  0  0  0  0  0  0  0
    8.8722    0.0564    0.0000 C   0  0  0  0  0  0  0  0  0  0  0  0
    8.2142    0.5541    0.0000 H   0  0  0  0  0  0  0  0  0  0  0  0
    9.6322    0.3773    0.0000 C   0  0  0  0  0  0  0  0  0  0  0  0
    9.7343    1.1960    0.0000 H   0  0  0  0  0  0  0  0  0  0  0  0
   10.2902   -0.1204    0.0000 C   0  0  0  0  0  0  0  0  0  0  0  0
   11.0502    0.2005    0.0000 H   0  0  0  0  0  0  0  0  0  0  0  0
   10.1881   -0.9391    0.0000 C   0  0  0  0  0  0  0  0  0  0  0  0
   10.8460   -1.4368    0.0000 H   0  0  0  0  0  0  0  0  0  0  0  0
    9.4281   -1.2600    0.0000 C   0  0  0  0  0  0  0  0  0  0  0  0
    8.6681   -1.5809    0.0000 H   0  0  0  0  0  0  0  0  0  0  0  0
    5.5588   -5.7250    0.0000 C   0  0  0  0  0  0  0  0  0  0  0  0
    4.9186   -5.2046    0.0000 H   0  0  0  0  0  0  0  0  0  0  0  0
    4.7339   -5.7379    0.0000 H   0  0  0  0  0  0  0  0  0  0  0  0
    5.2887   -6.5046    0.0000 C   0  0  0  0  0  0  0  0  0  0  0  0
    6.0989   -6.3487    0.0000 H   0  0  0  0  0  0  0  0  0  0  0  0
    5.0187   -7.2841    0.0000 H   0  0  0  0  0  0  0  0  0  0  0  0
    4.4786   -6.6605    0.0000 C   0  0  0  0  0  0  0  0  0  0  0  0
    3.9126   -6.0603    0.0000 H   0  0  0  0  0  0  0  0  0  0  0  0
    3.6720   -6.8335    0.0000 H   0  0  0  0  0  0  0  0  0  0  0  0
    4.2086   -7.4400    0.0000 C   0  0  0  0  0  0  0  0  0  0  0  0
    4.9881   -7.7101    0.0000 H   0  0  0  0  0  0  0  0  0  0  0  0
    4.8322   -6.9000    0.0000 H   0  0  0  0  0  0  0  0  0  0  0  0
    3.3984   -7.5960    0.0000 N   0  0  0  0  0  0  0  0  0  0  0  0
    2.6060   -7.3664    0.0000 H   0  0  0  0  0  0  0  0  0  0  0  0
    2.7423   -8.0961    0.0000 H   0  0  0  0  0  0  0  0  0  0  0  0
    7.9892   -7.4400    0.0000 N   0  0  0  0  0  0  0  0  0  0  0  0
    8.5293   -8.0637    0.0000 H   0  0  0  0  0  0  0  0  0  0  0  0
    8.2592   -6.6605    0.0000 C   0  0  0  0  0  0  0  0  0  0  0  0
    7.7191   -6.0369    0.0000 O   0  0  0  0  0  0  0  0  0  0  0  0
    9.0694   -6.5046    0.0000 C   0  0  0  0  0  0  0  0  0  0  0  0
    9.2253   -7.3147    0.0000 H   0  0  0  0  0  0  0  0  0  0  0  0
    9.8795   -6.3487    0.0000 H   0  0  0  0  0  0  0  0  0  0  0  0
    8.9135   -5.6944    0.0000 H   0  0  0  0  0  0  0  0  0  0  0  0
    5.8288   -9.3110    0.0000 C   0  0  0  0  0  0  0  0  0  0  0  0
    6.3689   -9.9346    0.0000 H   0  0  0  0  0  0  0  0  0  0  0  0
    5.0187   -9.4669    0.0000 C   0  0  0  0  0  0  0  0  0  0  0  0
    4.7487  -10.2464    0.0000 H   0  0  0  0  0  0  0  0  0  0  0  0
  1  2  1  0  0  0  0
  2  3  1  0  0  0  0
  3  4  2  0  0  0  0
  3  5  1  0  0  0  0
  5  6  1  0  0  0  0
  3  7  1  0  0  0  0
  7  8  1  0  0  0  0
  8  9  4  0  0  0  0
  9 10  1  0  0  0  0
  9 11  4  0  0  0  0
 11 12  1  0  0  0  0
 11 13  4  0  0  0  0
 13 14  1  0  0  0  0
 14 15  1  0  0  0  0
 14 16  1  0  0  0  0
 14 17  1  0  0  0  0
 17 18  1  0  0  0  0
 17 19  1  0  0  0  0
 19 20  2  0  0  0  0
 19 21  1  0  0  0  0
 21 22  1  0  0  0  0
 21 23  1  0  0  0  0
 23 24  1  0  0  0  0
 23 25  1  0  0  0  0
 25 26  2  0  0  0  0
 25 27  1  0  0  0  0
 27 28  1  0  0  0  0
 28 29  1  0  0  0  0
 28 30  1  0  0  0  0
 28 31  1  0  0  0  0
 31 32  1  0  0  0  0
 31 33  1  0  0  0  0
 31 34  1  0  0  0  0
 34 35  1  0  0  0  0
 34 36  1  0  0  0  0
 34 37  1  0  0  0  0
 27 37  1  0  0  0  0
 37 38  1  0  0  0  0
 37 39  1  0  0  0  0
 39 40  2  0  0  0  0
 39 41  1  0  0  0  0
 41 42  1  0  0  0  0
 41 43  1  0  0  0  0
 43 44  1  0  0  0  0
 43 45  1  0  0  0  0
 45 46  2  0  0  0  0
 45 47  1  0  0  0  0
 47 48  1  0  0  0  0
 47 49  1  0  0  0  0
 43 50  1  0  0  0  0
 50 51  1  0  0  0  0
 50 52  1  0  0  0  0
 50 53  1  0  0  0  0
 53 54  4  0  0  0  0
 54 55  1  0  0  0  0
 54 56  4  0  0  0  0
 56 57  1  0  0  0  0
 56 58  4  0  0  0  0
 58 59  1  0  0  0  0
 58 60  4  0  0  0  0
 60 61  1  0  0  0  0
 60 62  4  0  0  0  0
 53 62  4  0  0  0  0
 62 63  1  0  0  0  0
 23 64  1  0  0  0  0
 64 65  1  0  0  0  0
 64 66  1  0  0  0  0
 64 67  1  0  0  0  0
 67 68  1  0  0  0  0
 67 69  1  0  0  0  0
 67 70  1  0  0  0  0
 70 71  1  0  0  0  0
 70 72  1  0  0  0  0
 70 73  1  0  0  0  0
 73 74  1  0  0  0  0
 73 75  1  0  0  0  0
 73 76  1  0  0  0  0
 76 77  1  0  0  0  0
 76 78  1  0  0  0  0
 17 79  1  0  0  0  0
 79 80  1  0  0  0  0
 79 81  1  0  0  0  0
 81 82  2  0  0  0  0
 81 83  1  0  0  0  0
 83 84  1  0  0  0  0
 83 85  1  0  0  0  0
 83 86  1  0  0  0  0
 13 87  4  0  0  0  0
 87 88  1  0  0  0  0
 87 89  4  0  0  0  0
  8 89  4  0  0  0  0
 89 90  1  0  0  0  0
M  END
> <pActivity>
5.214670164989232

$$$$
CHEMBL3740866
  Mrv2316 04152410472D          

 70 71  0  0  0  0            999 V2000
    6.7511    0.4286    0.0000 H   0  0  0  0  0  0  0  0  0  0  0  0
    6.2110    1.0522    0.0000 O   0  0  0  0  0  0  0  0  0  0  0  0
    5.4009    0.8963    0.0000 P   0  0  0  0  0  0  0  0  0  0  0  0
    5.2450    1.7065    0.0000 O   0  0  0  0  0  0  0  0  0  0  0  0
    5.5568    0.0862    0.0000 O   0  0  0  0  0  0  0  0  0  0  0  0
    4.9332   -0.4539    0.0000 H   0  0  0  0  0  0  0  0  0  0  0  0
    4.5908    0.7404    0.0000 O   0  0  0  0  0  0  0  0  0  0  0  0
    4.0507    1.3641    0.0000 C   0  0  0  0  0  0  0  0  0  0  0  0
    3.2405    1.2082    0.0000 C   0  0  0  0  0  0  0  0  0  0  0  0
    2.9705    0.4286    0.0000 H   0  0  0  0  0  0  0  0  0  0  0  0
    2.7004    1.8318    0.0000 C   0  0  0  0  0  0  0  0  0  0  0  0
    1.8903    1.6759    0.0000 H   0  0  0  0  0  0  0  0  0  0  0  0
    2.9705    2.6113    0.0000 C   0  0  0  0  0  0  0  0  0  0  0  0
    2.4304    3.2350    0.0000 C   0  0  0  0  0  0  0  0  0  0  0  0
    1.6365    3.4592    0.0000 H   0  0  0  0  0  0  0  0  0  0  0  0
    1.7764    2.7321    0.0000 H   0  0  0  0  0  0  0  0  0  0  0  0
    2.7004    4.0145    0.0000 C   0  0  0  0  0  0  0  0  0  0  0  0
    1.8903    3.8586    0.0000 H   0  0  0  0  0  0  0  0  0  0  0  0
    2.1604    4.6382    0.0000 C   0  0  0  0  0  0  0  0  0  0  0  0
    1.3502    4.4823    0.0000 O   0  0  0  0  0  0  0  0  0  0  0  0
    2.4304    5.4177    0.0000 N   0  0  0  0  0  0  0  0  0  0  0  0
    2.9705    4.7941    0.0000 H   0  0  0  0  0  0  0  0  0  0  0  0
    1.8903    6.0414    0.0000 C   0  0  0  0  0  0  0  0  0  0  0  0
    2.7004    6.1973    0.0000 H   0  0  0  0  0  0  0  0  0  0  0  0
    2.1604    6.8209    0.0000 C   0  0  0  0  0  0  0  0  0  0  0  0
    2.9705    6.9768    0.0000 O   0  0  0  0  0  0  0  0  0  0  0  0
    1.6203    7.4446    0.0000 N   0  0  0  0  0  0  0  0  0  0  0  0
    0.7983    7.3742    0.0000 C   0  0  0  0  0  0  0  0  0  0  0  0
    0.0903    6.9506    0.0000 H   0  0  0  0  0  0  0  0  0  0  0  0
    0.7536    6.5504    0.0000 H   0  0  0  0  0  0  0  0  0  0  0  0
    0.4773    8.1342    0.0000 C   0  0  0  0  0  0  0  0  0  0  0  0
   -0.1443    8.6766    0.0000 H   0  0  0  0  0  0  0  0  0  0  0  0
   -0.3199    7.9222    0.0000 H   0  0  0  0  0  0  0  0  0  0  0  0
    1.1010    8.6743    0.0000 C   0  0  0  0  0  0  0  0  0  0  0  0
    1.4247    9.4331    0.0000 H   0  0  0  0  0  0  0  0  0  0  0  0
    0.6529    9.3670    0.0000 H   0  0  0  0  0  0  0  0  0  0  0  0
    1.8073    8.2481    0.0000 C   0  0  0  0  0  0  0  0  0  0  0  0
    2.4383    7.7166    0.0000 H   0  0  0  0  0  0  0  0  0  0  0  0
    2.5674    8.5690    0.0000 C   0  0  0  0  0  0  0  0  0  0  0  0
    2.6694    9.3877    0.0000 O   0  0  0  0  0  0  0  0  0  0  0  0
    3.2253    8.0713    0.0000 N   0  0  0  0  0  0  0  0  0  0  0  0
    3.8609    7.5454    0.0000 H   0  0  0  0  0  0  0  0  0  0  0  0
    3.9620    8.4427    0.0000 H   0  0  0  0  0  0  0  0  0  0  0  0
    1.0802    5.8855    0.0000 C   0  0  0  0  0  0  0  0  0  0  0  0
    0.2567    5.8347    0.0000 H   0  0  0  0  0  0  0  0  0  0  0  0
    1.4479    6.6240    0.0000 H   0  0  0  0  0  0  0  0  0  0  0  0
    0.8101    5.1059    0.0000 C   0  0  0  0  0  0  0  0  0  0  0  0
    1.6203    5.2618    0.0000 H   0  0  0  0  0  0  0  0  0  0  0  0
    0.5401    4.3264    0.0000 H   0  0  0  0  0  0  0  0  0  0  0  0
    0.0000    4.9500    0.0000 C   0  0  0  0  0  0  0  0  0  0  0  0
   -0.5610    5.5549    0.0000 H   0  0  0  0  0  0  0  0  0  0  0  0
   -0.8074    4.7803    0.0000 H   0  0  0  0  0  0  0  0  0  0  0  0
   -0.2700    4.1704    0.0000 C   0  0  0  0  0  0  0  0  0  0  0  0
   -0.4006    3.3558    0.0000 H   0  0  0  0  0  0  0  0  0  0  0  0
    0.1535    3.4625    0.0000 H   0  0  0  0  0  0  0  0  0  0  0  0
   -1.0802    4.0145    0.0000 N   0  0  0  0  0  0  0  0  0  0  0  0
   -1.8802    4.2160    0.0000 H   0  0  0  0  0  0  0  0  0  0  0  0
   -1.7083    3.4796    0.0000 H   0  0  0  0  0  0  0  0  0  0  0  0
    3.5106    4.1704    0.0000 N   0  0  0  0  0  0  0  0  0  0  0  0
    4.0507    3.5468    0.0000 H   0  0  0  0  0  0  0  0  0  0  0  0
    3.7806    4.9500    0.0000 C   0  0  0  0  0  0  0  0  0  0  0  0
    3.2405    5.5736    0.0000 O   0  0  0  0  0  0  0  0  0  0  0  0
    4.5908    5.1059    0.0000 C   0  0  0  0  0  0  0  0  0  0  0  0
    4.7467    4.2958    0.0000 H   0  0  0  0  0  0  0  0  0  0  0  0
    5.4009    5.2618    0.0000 H   0  0  0  0  0  0  0  0  0  0  0  0
    4.4348    5.9160    0.0000 H   0  0  0  0  0  0  0  0  0  0  0  0
    3.7806    2.7673    0.0000 C   0  0  0  0  0  0  0  0  0  0  0  0
    4.5908    2.9232    0.0000 H   0  0  0  0  0  0  0  0  0  0  0  0
    4.3207    2.1436    0.0000 C   0  0  0  0  0  0  0  0  0  0  0  0
    5.1003    1.8736    0.0000 H   0  0  0  0  0  0  0  0  0  0  0  0
  1  2  1  0  0  0  0
  2  3  1  0  0  0  0
  3  4  2  0  0  0  0
  3  5  1  0  0  0  0
  5  6  1  0  0  0  0
  3  7  1  0  0  0  0
  7  8  1  0  0  0  0
  8  9  4  0  0  0  0
  9 10  1  0  0  0  0
  9 11  4  0  0  0  0
 11 12  1  0  0  0  0
 11 13  4  0  0  0  0
 13 14  1  0  0  0  0
 14 15  1  0  0  0  0
 14 16  1  0  0  0  0
 14 17  1  0  0  0  0
 17 18  1  0  0  0  0
 17 19  1  0  0  0  0
 19 20  2  0  0  0  0
 19 21  1  0  0  0  0
 21 22  1  0  0  0  0
 21 23  1  0  0  0  0
 23 24  1  0  0  0  0
 23 25  1  0  0  0  0
 25 26  2  0  0  0  0
 25 27  1  0  0  0  0
 27 28  1  0  0  0  0
 28 29  1  0  0  0  0
 28 30  1  0  0  0  0
 28 31  1  0  0  0  0
 31 32  1  0  0  0  0
 31 33  1  0  0  0  0
 31 34  1  0  0  0  0
 34 35  1  0  0  0  0
 34 36  1  0  0  0  0
 34 37  1  0  0  0  0
 27 37  1  0  0  0  0
 37 38  1  0  0  0  0
 37 39  1  0  0  0  0
 39 40  2  0  0  0  0
 39 41  1  0  0  0  0
 41 42  1  0  0  0  0
 41 43  1  0  0  0  0
 23 44  1  0  0  0  0
 44 45  1  0  0  0  0
 44 46  1  0  0  0  0
 44 47  1  0  0  0  0
 47 48  1  0  0  0  0
 47 49  1  0  0  0  0
 47 50  1  0  0  0  0
 50 51  1  0  0  0  0
 50 52  1  0  0  0  0
 50 53  1  0  0  0  0
 53 54  1  0  0  0  0
 53 55  1  0  0  0  0
 53 56  1  0  0  0  0
 56 57  1  0  0  0  0
 56 58  1  0  0  0  0
 17 59  1  0  0  0  0
 59 60  1  0  0  0  0
 59 61  1  0  0  0  0
 61 62  2  0  0  0  0
 61 63  1  0  0  0  0
 63 64  1  0  0  0  0
 63 65  1  0  0  0  0
 63 66  1  0  0  0  0
 13 67  4  0  0  0  0
 67 68  1  0  0  0  0
 67 69  4  0  0  0  0
  8 69  4  0  0  0  0
 69 70  1  0  0  0  0
M  END
> <pActivity>
5.2839966563652

$$$$
CHEMBL3740037
  Mrv2316 04152410472D          

 88 90  0  0  0  0            999 V2000
    2.6081  -11.0765    0.0000 H   0  0  0  0  0  0  0  0  0  0  0  0
    3.3226  -10.6640    0.0000 O   0  0  0  0  0  0  0  0  0  0  0  0
    3.3226   -9.8390    0.0000 P   0  0  0  0  0  0  0  0  0  0  0  0
    4.1476   -9.8390    0.0000 O   0  0  0  0  0  0  0  0  0  0  0  0
    2.4976   -9.8390    0.0000 O   0  0  0  0  0  0  0  0  0  0  0  0
    2.0851   -9.1245    0.0000 H   0  0  0  0  0  0  0  0  0  0  0  0
    3.3226   -9.0140    0.0000 O   0  0  0  0  0  0  0  0  0  0  0  0
    4.0370   -8.6015    0.0000 C   0  0  0  0  0  0  0  0  0  0  0  0
    4.0370   -7.7765    0.0000 C   0  0  0  0  0  0  0  0  0  0  0  0
    3.3226   -7.3640    0.0000 H   0  0  0  0  0  0  0  0  0  0  0  0
    4.7515   -7.3640    0.0000 C   0  0  0  0  0  0  0  0  0  0  0  0
    5.4660   -6.9515    0.0000 H   0  0  0  0  0  0  0  0  0  0  0  0
    5.4660   -7.7765    0.0000 C   0  0  0  0  0  0  0  0  0  0  0  0
    6.1805   -7.3640    0.0000 C   0  0  0  0  0  0  0  0  0  0  0  0
    6.6338   -8.0533    0.0000 H   0  0  0  0  0  0  0  0  0  0  0  0
    7.0041   -7.4120    0.0000 H   0  0  0  0  0  0  0  0  0  0  0  0
    6.1805   -6.5390    0.0000 C   0  0  0  0  0  0  0  0  0  0  0  0
    6.1805   -5.7140    0.0000 H   0  0  0  0  0  0  0  0  0  0  0  0
    5.4660   -6.1265    0.0000 C   0  0  0  0  0  0  0  0  0  0  0  0
    4.7515   -6.5390    0.0000 O   0  0  0  0  0  0  0  0  0  0  0  0
    5.4660   -5.3015    0.0000 N   0  0  0  0  0  0  0  0  0  0  0  0
    5.4660   -4.4765    0.0000 H   0  0  0  0  0  0  0  0  0  0  0  0
    4.7515   -4.8890    0.0000 C   0  0  0  0  0  0  0  0  0  0  0  0
    4.0370   -4.4765    0.0000 H   0  0  0  0  0  0  0  0  0  0  0  0
    4.7515   -4.0640    0.0000 C   0  0  0  0  0  0  0  0  0  0  0  0
    5.4660   -3.6515    0.0000 O   0  0  0  0  0  0  0  0  0  0  0  0
    4.0370   -3.6515    0.0000 N   0  0  0  0  0  0  0  0  0  0  0  0
    3.2834   -3.9870    0.0000 C   0  0  0  0  0  0  0  0  0  0  0  0
    2.4661   -4.1001    0.0000 H   0  0  0  0  0  0  0  0  0  0  0  0
    2.9185   -4.7270    0.0000 H   0  0  0  0  0  0  0  0  0  0  0  0
    2.7313   -3.3740    0.0000 C   0  0  0  0  0  0  0  0  0  0  0  0
    2.1596   -2.7791    0.0000 H   0  0  0  0  0  0  0  0  0  0  0  0
    1.9083   -3.3174    0.0000 H   0  0  0  0  0  0  0  0  0  0  0  0
    3.1438   -2.6595    0.0000 C   0  0  0  0  0  0  0  0  0  0  0  0
    3.2014   -1.8365    0.0000 H   0  0  0  0  0  0  0  0  0  0  0  0
    2.4937   -2.1516    0.0000 H   0  0  0  0  0  0  0  0  0  0  0  0
    3.9508   -2.8310    0.0000 C   0  0  0  0  0  0  0  0  0  0  0  0
    4.7210   -3.1267    0.0000 H   0  0  0  0  0  0  0  0  0  0  0  0
    4.5639   -2.2790    0.0000 C   0  0  0  0  0  0  0  0  0  0  0  0
    5.3485   -2.5339    0.0000 O   0  0  0  0  0  0  0  0  0  0  0  0
    4.3924   -1.4720    0.0000 N   0  0  0  0  0  0  0  0  0  0  0  0
    3.6078   -1.2171    0.0000 H   0  0  0  0  0  0  0  0  0  0  0  0
    5.0055   -0.9200    0.0000 C   0  0  0  0  0  0  0  0  0  0  0  0
    5.1770   -1.7269    0.0000 H   0  0  0  0  0  0  0  0  0  0  0  0
    5.7901   -1.1749    0.0000 C   0  0  0  0  0  0  0  0  0  0  0  0
    6.4032   -0.6229    0.0000 O   0  0  0  0  0  0  0  0  0  0  0  0
    5.9616   -1.9819    0.0000 N   0  0  0  0  0  0  0  0  0  0  0  0
    6.5484   -2.5618    0.0000 H   0  0  0  0  0  0  0  0  0  0  0  0
    6.7772   -1.8576    0.0000 H   0  0  0  0  0  0  0  0  0  0  0  0
    4.8339   -0.1130    0.0000 C   0  0  0  0  0  0  0  0  0  0  0  0
    4.2472    0.4670    0.0000 H   0  0  0  0  0  0  0  0  0  0  0  0
    4.0184   -0.2373    0.0000 H   0  0  0  0  0  0  0  0  0  0  0  0
    5.4470    0.4390    0.0000 C   0  0  0  0  0  0  0  0  0  0  0  0
    5.2755    1.2460    0.0000 C   0  0  0  0  0  0  0  0  0  0  0  0
    4.4909    1.5009    0.0000 H   0  0  0  0  0  0  0  0  0  0  0  0
    5.8886    1.7980    0.0000 C   0  0  0  0  0  0  0  0  0  0  0  0
    5.7171    2.6050    0.0000 H   0  0  0  0  0  0  0  0  0  0  0  0
    6.6732    1.5431    0.0000 C   0  0  0  0  0  0  0  0  0  0  0  0
    7.2863    2.0951    0.0000 H   0  0  0  0  0  0  0  0  0  0  0  0
    6.8448    0.7361    0.0000 C   0  0  0  0  0  0  0  0  0  0  0  0
    7.6294    0.4812    0.0000 H   0  0  0  0  0  0  0  0  0  0  0  0
    6.2317    0.1841    0.0000 C   0  0  0  0  0  0  0  0  0  0  0  0
    5.6186   -0.3679    0.0000 H   0  0  0  0  0  0  0  0  0  0  0  0
    4.0370   -5.3015    0.0000 C   0  0  0  0  0  0  0  0  0  0  0  0
    3.3226   -5.7140    0.0000 C   0  0  0  0  0  0  0  0  0  0  0  0
    2.9101   -4.9995    0.0000 H   0  0  0  0  0  0  0  0  0  0  0  0
    2.6081   -6.1265    0.0000 H   0  0  0  0  0  0  0  0  0  0  0  0
    3.7351   -6.4285    0.0000 H   0  0  0  0  0  0  0  0  0  0  0  0
    4.4495   -6.0160    0.0000 C   0  0  0  0  0  0  0  0  0  0  0  0
    5.2620   -5.8727    0.0000 H   0  0  0  0  0  0  0  0  0  0  0  0
    4.9798   -5.3840    0.0000 H   0  0  0  0  0  0  0  0  0  0  0  0
    4.2360   -6.8128    0.0000 H   0  0  0  0  0  0  0  0  0  0  0  0
    3.6245   -4.5870    0.0000 C   0  0  0  0  0  0  0  0  0  0  0  0
    4.1562   -3.9562    0.0000 H   0  0  0  0  0  0  0  0  0  0  0  0
    3.7000   -3.7655    0.0000 H   0  0  0  0  0  0  0  0  0  0  0  0
    3.4110   -5.3839    0.0000 H   0  0  0  0  0  0  0  0  0  0  0  0
    6.8949   -6.1265    0.0000 N   0  0  0  0  0  0  0  0  0  0  0  0
    7.6094   -6.5390    0.0000 H   0  0  0  0  0  0  0  0  0  0  0  0
    6.8949   -5.3015    0.0000 C   0  0  0  0  0  0  0  0  0  0  0  0
    6.1805   -4.8890    0.0000 O   0  0  0  0  0  0  0  0  0  0  0  0
    7.6094   -4.8890    0.0000 C   0  0  0  0  0  0  0  0  0  0  0  0
    8.0219   -5.6035    0.0000 H   0  0  0  0  0  0  0  0  0  0  0  0
    8.3239   -4.4765    0.0000 H   0  0  0  0  0  0  0  0  0  0  0  0
    7.1969   -4.1745    0.0000 H   0  0  0  0  0  0  0  0  0  0  0  0
    5.4660   -8.6015    0.0000 C   0  0  0  0  0  0  0  0  0  0  0  0
    6.1805   -9.0140    0.0000 H   0  0  0  0  0  0  0  0  0  0  0  0
    4.7515   -9.0140    0.0000 C   0  0  0  0  0  0  0  0  0  0  0  0
    4.7515   -9.8390    0.0000 H   0  0  0  0  0  0  0  0  0  0  0  0
  1  2  1  0  0  0  0
  2  3  1  0  0  0  0
  3  4  2  0  0  0  0
  3  5  1  0  0  0  0
  5  6  1  0  0  0  0
  3  7  1  0  0  0  0
  7  8  1  0  0  0  0
  8  9  4  0  0  0  0
  9 10  1  0  0  0  0
  9 11  4  0  0  0  0
 11 12  1  0  0  0  0
 11 13  4  0  0  0  0
 13 14  1  0  0  0  0
 14 15  1  0  0  0  0
 14 16  1  0  0  0  0
 14 17  1  0  0  0  0
 17 18  1  0  0  0  0
 17 19  1  0  0  0  0
 19 20  2  0  0  0  0
 19 21  1  0  0  0  0
 21 22  1  0  0  0  0
 21 23  1  0  0  0  0
 23 24  1  0  0  0  0
 23 25  1  0  0  0  0
 25 26  2  0  0  0  0
 25 27  1  0  0  0  0
 27 28  1  0  0  0  0
 28 29  1  0  0  0  0
 28 30  1  0  0  0  0
 28 31  1  0  0  0  0
 31 32  1  0  0  0  0
 31 33  1  0  0  0  0
 31 34  1  0  0  0  0
 34 35  1  0  0  0  0
 34 36  1  0  0  0  0
 34 37  1  0  0  0  0
 27 37  1  0  0  0  0
 37 38  1  0  0  0  0
 37 39  1  0  0  0  0
 39 40  2  0  0  0  0
 39 41  1  0  0  0  0
 41 42  1  0  0  0  0
 41 43  1  0  0  0  0
 43 44  1  0  0  0  0
 43 45  1  0  0  0  0
 45 46  2  0  0  0  0
 45 47  1  0  0  0  0
 47 48  1  0  0  0  0
 47 49  1  0  0  0  0
 43 50  1  0  0  0  0
 50 51  1  0  0  0  0
 50 52  1  0  0  0  0
 50 53  1  0  0  0  0
 53 54  4  0  0  0  0
 54 55  1  0  0  0  0
 54 56  4  0  0  0  0
 56 57  1  0  0  0  0
 56 58  4  0  0  0  0
 58 59  1  0  0  0  0
 58 60  4  0  0  0  0
 60 61  1  0  0  0  0
 60 62  4  0  0  0  0
 53 62  4  0  0  0  0
 62 63  1  0  0  0  0
 23 64  1  0  0  0  0
 64 65  1  0  0  0  0
 65 66  1  0  0  0  0
 65 67  1  0  0  0  0
 65 68  1  0  0  0  0
 64 69  1  0  0  0  0
 69 70  1  0  0  0  0
 69 71  1  0  0  0  0
 69 72  1  0  0  0  0
 64 73  1  0  0  0  0
 73 74  1  0  0  0  0
 73 75  1  0  0  0  0
 73 76  1  0  0  0  0
 17 77  1  0  0  0  0
 77 78  1  0  0  0  0
 77 79  1  0  0  0  0
 79 80  2  0  0  0  0
 79 81  1  0  0  0  0
 81 82  1  0  0  0  0
 81 83  1  0  0  0  0
 81 84  1  0  0  0  0
 13 85  4  0  0  0  0
 85 86  1  0  0  0  0
 85 87  4  0  0  0  0
  8 87  4  0  0  0  0
 87 88  1  0  0  0  0
M  END
> <pActivity>
5.397940008672037

$$$$
CHEMBL3739902
  Mrv2316 04152410472D          

 88 90  0  0  0  0            999 V2000
    2.3183  -10.7142    0.0000 H   0  0  0  0  0  0  0  0  0  0  0  0
    3.1284  -10.5583    0.0000 O   0  0  0  0  0  0  0  0  0  0  0  0
    3.3984   -9.7787    0.0000 P   0  0  0  0  0  0  0  0  0  0  0  0
    4.1780  -10.0487    0.0000 O   0  0  0  0  0  0  0  0  0  0  0  0
    2.6189   -9.5087    0.0000 O   0  0  0  0  0  0  0  0  0  0  0  0
    2.4630   -8.6985    0.0000 H   0  0  0  0  0  0  0  0  0  0  0  0
    3.6685   -8.9991    0.0000 O   0  0  0  0  0  0  0  0  0  0  0  0
    4.4786   -8.8432    0.0000 C   0  0  0  0  0  0  0  0  0  0  0  0
    4.7487   -8.0637    0.0000 C   0  0  0  0  0  0  0  0  0  0  0  0
    3.9385   -8.2196    0.0000 H   0  0  0  0  0  0  0  0  0  0  0  0
    5.5588   -7.9078    0.0000 C   0  0  0  0  0  0  0  0  0  0  0  0
    6.3689   -7.7519    0.0000 H   0  0  0  0  0  0  0  0  0  0  0  0
    6.0989   -8.5314    0.0000 C   0  0  0  0  0  0  0  0  0  0  0  0
    6.9090   -8.3755    0.0000 C   0  0  0  0  0  0  0  0  0  0  0  0
    7.1118   -9.1752    0.0000 H   0  0  0  0  0  0  0  0  0  0  0  0
    7.6715   -8.6904    0.0000 H   0  0  0  0  0  0  0  0  0  0  0  0
    7.1791   -7.5960    0.0000 C   0  0  0  0  0  0  0  0  0  0  0  0
    7.4491   -6.8164    0.0000 H   0  0  0  0  0  0  0  0  0  0  0  0
    6.6390   -6.9723    0.0000 C   0  0  0  0  0  0  0  0  0  0  0  0
    5.8288   -7.1282    0.0000 O   0  0  0  0  0  0  0  0  0  0  0  0
    6.9090   -6.1928    0.0000 N   0  0  0  0  0  0  0  0  0  0  0  0
    7.1791   -5.4132    0.0000 H   0  0  0  0  0  0  0  0  0  0  0  0
    6.3689   -5.5691    0.0000 C   0  0  0  0  0  0  0  0  0  0  0  0
    5.8288   -4.9455    0.0000 H   0  0  0  0  0  0  0  0  0  0  0  0
    6.6390   -4.7896    0.0000 C   0  0  0  0  0  0  0  0  0  0  0  0
    7.4491   -4.6337    0.0000 O   0  0  0  0  0  0  0  0  0  0  0  0
    6.0989   -4.1659    0.0000 N   0  0  0  0  0  0  0  0  0  0  0  0
    5.2769   -4.2363    0.0000 C   0  0  0  0  0  0  0  0  0  0  0  0
    4.4614   -4.3615    0.0000 H   0  0  0  0  0  0  0  0  0  0  0  0
    4.7696   -4.8869    0.0000 H   0  0  0  0  0  0  0  0  0  0  0  0
    4.9559   -3.4763    0.0000 C   0  0  0  0  0  0  0  0  0  0  0  0
    4.3343   -2.9339    0.0000 H   0  0  0  0  0  0  0  0  0  0  0  0
    4.1587   -3.6883    0.0000 H   0  0  0  0  0  0  0  0  0  0  0  0
    5.5796   -2.9362    0.0000 C   0  0  0  0  0  0  0  0  0  0  0  0
    5.9034   -2.1774    0.0000 H   0  0  0  0  0  0  0  0  0  0  0  0
    5.1315   -2.2435    0.0000 H   0  0  0  0  0  0  0  0  0  0  0  0
    6.2860   -3.3624    0.0000 C   0  0  0  0  0  0  0  0  0  0  0  0
    6.9170   -3.8939    0.0000 H   0  0  0  0  0  0  0  0  0  0  0  0
    7.0460   -3.0415    0.0000 C   0  0  0  0  0  0  0  0  0  0  0  0
    7.7039   -3.5392    0.0000 O   0  0  0  0  0  0  0  0  0  0  0  0
    7.1480   -2.2228    0.0000 N   0  0  0  0  0  0  0  0  0  0  0  0
    6.4901   -1.7251    0.0000 H   0  0  0  0  0  0  0  0  0  0  0  0
    7.9081   -1.9019    0.0000 C   0  0  0  0  0  0  0  0  0  0  0  0
    7.8060   -2.7205    0.0000 H   0  0  0  0  0  0  0  0  0  0  0  0
    8.5660   -2.3996    0.0000 C   0  0  0  0  0  0  0  0  0  0  0  0
    9.3260   -2.0787    0.0000 O   0  0  0  0  0  0  0  0  0  0  0  0
    8.4639   -3.2183    0.0000 N   0  0  0  0  0  0  0  0  0  0  0  0
    8.8285   -3.9583    0.0000 H   0  0  0  0  0  0  0  0  0  0  0  0
    9.2753   -3.3678    0.0000 H   0  0  0  0  0  0  0  0  0  0  0  0
    8.0101   -1.0832    0.0000 C   0  0  0  0  0  0  0  0  0  0  0  0
    7.6455   -0.3431    0.0000 H   0  0  0  0  0  0  0  0  0  0  0  0
    7.1988   -0.9337    0.0000 H   0  0  0  0  0  0  0  0  0  0  0  0
    8.7701   -0.7623    0.0000 C   0  0  0  0  0  0  0  0  0  0  0  0
    8.8722    0.0564    0.0000 C   0  0  0  0  0  0  0  0  0  0  0  0
    8.2142    0.5541    0.0000 H   0  0  0  0  0  0  0  0  0  0  0  0
    9.6322    0.3773    0.0000 C   0  0  0  0  0  0  0  0  0  0  0  0
    9.7343    1.1960    0.0000 H   0  0  0  0  0  0  0  0  0  0  0  0
   10.2902   -0.1204    0.0000 C   0  0  0  0  0  0  0  0  0  0  0  0
   11.0502    0.2005    0.0000 H   0  0  0  0  0  0  0  0  0  0  0  0
   10.1881   -0.9391    0.0000 C   0  0  0  0  0  0  0  0  0  0  0  0
   10.8460   -1.4368    0.0000 H   0  0  0  0  0  0  0  0  0  0  0  0
    9.4281   -1.2600    0.0000 C   0  0  0  0  0  0  0  0  0  0  0  0
    8.6681   -1.5809    0.0000 H   0  0  0  0  0  0  0  0  0  0  0  0
    5.5588   -5.7250    0.0000 C   0  0  0  0  0  0  0  0  0  0  0  0
    4.9186   -5.2046    0.0000 H   0  0  0  0  0  0  0  0  0  0  0  0
    4.7339   -5.7379    0.0000 H   0  0  0  0  0  0  0  0  0  0  0  0
    5.2887   -6.5046    0.0000 C   0  0  0  0  0  0  0  0  0  0  0  0
    6.0989   -6.3487    0.0000 H   0  0  0  0  0  0  0  0  0  0  0  0
    5.0187   -7.2841    0.0000 H   0  0  0  0  0  0  0  0  0  0  0  0
    4.4786   -6.6605    0.0000 C   0  0  0  0  0  0  0  0  0  0  0  0
    3.9126   -6.0603    0.0000 H   0  0  0  0  0  0  0  0  0  0  0  0
    3.6720   -6.8335    0.0000 H   0  0  0  0  0  0  0  0  0  0  0  0
    4.2086   -7.4400    0.0000 C   0  0  0  0  0  0  0  0  0  0  0  0
    3.4269   -7.1762    0.0000 H   0  0  0  0  0  0  0  0  0  0  0  0
    3.3993   -7.6002    0.0000 H   0  0  0  0  0  0  0  0  0  0  0  0
    3.5864   -7.9818    0.0000 H   0  0  0  0  0  0  0  0  0  0  0  0
    7.9892   -7.4400    0.0000 N   0  0  0  0  0  0  0  0  0  0  0  0
    8.5293   -8.0637    0.0000 H   0  0  0  0  0  0  0  0  0  0  0  0
    8.2592   -6.6605    0.0000 C   0  0  0  0  0  0  0  0  0  0  0  0
    7.7191   -6.0369    0.0000 O   0  0  0  0  0  0  0  0  0  0  0  0
    9.0694   -6.5046    0.0000 C   0  0  0  0  0  0  0  0  0  0  0  0
    9.2253   -7.3147    0.0000 H   0  0  0  0  0  0  0  0  0  0  0  0
    9.8795   -6.3487    0.0000 H   0  0  0  0  0  0  0  0  0  0  0  0
    8.9135   -5.6944    0.0000 H   0  0  0  0  0  0  0  0  0  0  0  0
    5.8288   -9.3110    0.0000 C   0  0  0  0  0  0  0  0  0  0  0  0
    6.3689   -9.9346    0.0000 H   0  0  0  0  0  0  0  0  0  0  0  0
    5.0187   -9.4669    0.0000 C   0  0  0  0  0  0  0  0  0  0  0  0
    4.7487  -10.2464    0.0000 H   0  0  0  0  0  0  0  0  0  0  0  0
  1  2  1  0  0  0  0
  2  3  1  0  0  0  0
  3  4  2  0  0  0  0
  3  5  1  0  0  0  0
  5  6  1  0  0  0  0
  3  7  1  0  0  0  0
  7  8  1  0  0  0  0
  8  9  4  0  0  0  0
  9 10  1  0  0  0  0
  9 11  4  0  0  0  0
 11 12  1  0  0  0  0
 11 13  4  0  0  0  0
 13 14  1  0  0  0  0
 14 15  1  0  0  0  0
 14 16  1  0  0  0  0
 14 17  1  0  0  0  0
 17 18  1  0  0  0  0
 17 19  1  0  0  0  0
 19 20  2  0  0  0  0
 19 21  1  0  0  0  0
 21 22  1  0  0  0  0
 21 23  1  0  0  0  0
 23 24  1  0  0  0  0
 23 25  1  0  0  0  0
 25 26  2  0  0  0  0
 25 27  1  0  0  0  0
 27 28  1  0  0  0  0
 28 29  1  0  0  0  0
 28 30  1  0  0  0  0
 28 31  1  0  0  0  0
 31 32  1  0  0  0  0
 31 33  1  0  0  0  0
 31 34  1  0  0  0  0
 34 35  1  0  0  0  0
 34 36  1  0  0  0  0
 34 37  1  0  0  0  0
 27 37  1  0  0  0  0
 37 38  1  0  0  0  0
 37 39  1  0  0  0  0
 39 40  2  0  0  0  0
 39 41  1  0  0  0  0
 41 42  1  0  0  0  0
 41 43  1  0  0  0  0
 43 44  1  0  0  0  0
 43 45  1  0  0  0  0
 45 46  2  0  0  0  0
 45 47  1  0  0  0  0
 47 48  1  0  0  0  0
 47 49  1  0  0  0  0
 43 50  1  0  0  0  0
 50 51  1  0  0  0  0
 50 52  1  0  0  0  0
 50 53  1  0  0  0  0
 53 54  4  0  0  0  0
 54 55  1  0  0  0  0
 54 56  4  0  0  0  0
 56 57  1  0  0  0  0
 56 58  4  0  0  0  0
 58 59  1  0  0  0  0
 58 60  4  0  0  0  0
 60 61  1  0  0  0  0
 60 62  4  0  0  0  0
 53 62  4  0  0  0  0
 62 63  1  0  0  0  0
 23 64  1  0  0  0  0
 64 65  1  0  0  0  0
 64 66  1  0  0  0  0
 64 67  1  0  0  0  0
 67 68  1  0  0  0  0
 67 69  1  0  0  0  0
 67 70  1  0  0  0  0
 70 71  1  0  0  0  0
 70 72  1  0  0  0  0
 70 73  1  0  0  0  0
 73 74  1  0  0  0  0
 73 75  1  0  0  0  0
 73 76  1  0  0  0  0
 17 77  1  0  0  0  0
 77 78  1  0  0  0  0
 77 79  1  0  0  0  0
 79 80  2  0  0  0  0
 79 81  1  0  0  0  0
 81 82  1  0  0  0  0
 81 83  1  0  0  0  0
 81 84  1  0  0  0  0
 13 85  4  0  0  0  0
 85 86  1  0  0  0  0
 85 87  4  0  0  0  0
  8 87  4  0  0  0  0
 87 88  1  0  0  0  0
M  END
> <pActivity>
5.2839966563652

$$$$
CHEMBL3740842
  Mrv2316 04152410472D          

 79 81  0  0  0  0            999 V2000
    5.2455  -11.0872    0.0000 H   0  0  0  0  0  0  0  0  0  0  0  0
    5.6580  -10.3727    0.0000 O   0  0  0  0  0  0  0  0  0  0  0  0
    5.2455   -9.6583    0.0000 P   0  0  0  0  0  0  0  0  0  0  0  0
    5.9599   -9.2458    0.0000 O   0  0  0  0  0  0  0  0  0  0  0  0
    4.5310  -10.0708    0.0000 O   0  0  0  0  0  0  0  0  0  0  0  0
    3.8165   -9.6583    0.0000 H   0  0  0  0  0  0  0  0  0  0  0  0
    4.8330   -8.9438    0.0000 O   0  0  0  0  0  0  0  0  0  0  0  0
    5.2455   -8.2293    0.0000 C   0  0  0  0  0  0  0  0  0  0  0  0
    4.8330   -7.5148    0.0000 C   0  0  0  0  0  0  0  0  0  0  0  0
    4.0080   -7.5148    0.0000 H   0  0  0  0  0  0  0  0  0  0  0  0
    5.2455   -6.8004    0.0000 C   0  0  0  0  0  0  0  0  0  0  0  0
    5.6580   -6.0859    0.0000 H   0  0  0  0  0  0  0  0  0  0  0  0
    6.0705   -6.8004    0.0000 C   0  0  0  0  0  0  0  0  0  0  0  0
    6.4830   -6.0859    0.0000 C   0  0  0  0  0  0  0  0  0  0  0  0
    7.2202   -6.4562    0.0000 H   0  0  0  0  0  0  0  0  0  0  0  0
    7.2202   -5.7156    0.0000 H   0  0  0  0  0  0  0  0  0  0  0  0
    6.0705   -5.3714    0.0000 C   0  0  0  0  0  0  0  0  0  0  0  0
    5.6580   -4.6570    0.0000 H   0  0  0  0  0  0  0  0  0  0  0  0
    5.2455   -5.3714    0.0000 C   0  0  0  0  0  0  0  0  0  0  0  0
    4.8330   -6.0859    0.0000 O   0  0  0  0  0  0  0  0  0  0  0  0
    4.8330   -4.6570    0.0000 N   0  0  0  0  0  0  0  0  0  0  0  0
    4.4205   -5.3714    0.0000 H   0  0  0  0  0  0  0  0  0  0  0  0
    4.0080   -4.6570    0.0000 C   0  0  0  0  0  0  0  0  0  0  0  0
    4.4205   -3.9425    0.0000 H   0  0  0  0  0  0  0  0  0  0  0  0
    3.5955   -3.9425    0.0000 C   0  0  0  0  0  0  0  0  0  0  0  0
    4.0080   -3.2280    0.0000 O   0  0  0  0  0  0  0  0  0  0  0  0
    2.7705   -3.9425    0.0000 N   0  0  0  0  0  0  0  0  0  0  0  0
    2.2856   -4.6099    0.0000 C   0  0  0  0  0  0  0  0  0  0  0  0
    2.1423   -5.4224    0.0000 H   0  0  0  0  0  0  0  0  0  0  0  0
    2.8790   -5.1830    0.0000 H   0  0  0  0  0  0  0  0  0  0  0  0
    1.5009   -4.3550    0.0000 C   0  0  0  0  0  0  0  0  0  0  0  0
    0.6840   -4.4698    0.0000 H   0  0  0  0  0  0  0  0  0  0  0  0
    1.1393   -5.0965    0.0000 H   0  0  0  0  0  0  0  0  0  0  0  0
    1.5009   -3.5300    0.0000 C   0  0  0  0  0  0  0  0  0  0  0  0
    1.1393   -2.7885    0.0000 H   0  0  0  0  0  0  0  0  0  0  0  0
    0.6840   -3.4152    0.0000 H   0  0  0  0  0  0  0  0  0  0  0  0
    2.2856   -3.2750    0.0000 C   0  0  0  0  0  0  0  0  0  0  0  0
    3.1004   -3.1460    0.0000 H   0  0  0  0  0  0  0  0  0  0  0  0
    2.5405   -2.4904    0.0000 C   0  0  0  0  0  0  0  0  0  0  0  0
    3.3475   -2.3189    0.0000 O   0  0  0  0  0  0  0  0  0  0  0  0
    1.9885   -1.8773    0.0000 N   0  0  0  0  0  0  0  0  0  0  0  0
    1.1815   -2.0489    0.0000 H   0  0  0  0  0  0  0  0  0  0  0  0
    2.2434   -1.0927    0.0000 C   0  0  0  0  0  0  0  0  0  0  0  0
    2.7954   -1.7058    0.0000 H   0  0  0  0  0  0  0  0  0  0  0  0
    3.0504   -0.9212    0.0000 C   0  0  0  0  0  0  0  0  0  0  0  0
    3.3053   -0.1366    0.0000 O   0  0  0  0  0  0  0  0  0  0  0  0
    3.6024   -1.5343    0.0000 N   0  0  0  0  0  0  0  0  0  0  0  0
    4.4005   -1.7432    0.0000 H   0  0  0  0  0  0  0  0  0  0  0  0
    4.2466   -1.0188    0.0000 H   0  0  0  0  0  0  0  0  0  0  0  0
    1.6914   -0.4796    0.0000 C   0  0  0  0  0  0  0  0  0  0  0  0
    0.8932   -0.2707    0.0000 H   0  0  0  0  0  0  0  0  0  0  0  0
    1.0472   -0.9951    0.0000 H   0  0  0  0  0  0  0  0  0  0  0  0
    1.9463    0.3050    0.0000 C   0  0  0  0  0  0  0  0  0  0  0  0
    1.3943    0.9181    0.0000 C   0  0  0  0  0  0  0  0  0  0  0  0
    0.5873    0.7466    0.0000 H   0  0  0  0  0  0  0  0  0  0  0  0
    1.6492    1.7027    0.0000 C   0  0  0  0  0  0  0  0  0  0  0  0
    1.0972    2.3158    0.0000 H   0  0  0  0  0  0  0  0  0  0  0  0
    2.4562    1.8743    0.0000 C   0  0  0  0  0  0  0  0  0  0  0  0
    2.7111    2.6589    0.0000 H   0  0  0  0  0  0  0  0  0  0  0  0
    3.0082    1.2612    0.0000 C   0  0  0  0  0  0  0  0  0  0  0  0
    3.8152    1.4327    0.0000 H   0  0  0  0  0  0  0  0  0  0  0  0
    2.7533    0.4765    0.0000 C   0  0  0  0  0  0  0  0  0  0  0  0
    2.4983   -0.3081    0.0000 H   0  0  0  0  0  0  0  0  0  0  0  0
    3.5955   -5.3714    0.0000 C   0  0  0  0  0  0  0  0  0  0  0  0
    2.9111   -5.8322    0.0000 H   0  0  0  0  0  0  0  0  0  0  0  0
    3.4897   -6.1896    0.0000 H   0  0  0  0  0  0  0  0  0  0  0  0
    4.1402   -5.9911    0.0000 H   0  0  0  0  0  0  0  0  0  0  0  0
    6.4830   -4.6570    0.0000 N   0  0  0  0  0  0  0  0  0  0  0  0
    7.3080   -4.6570    0.0000 H   0  0  0  0  0  0  0  0  0  0  0  0
    6.0705   -3.9425    0.0000 C   0  0  0  0  0  0  0  0  0  0  0  0
    5.2455   -3.9425    0.0000 O   0  0  0  0  0  0  0  0  0  0  0  0
    6.4830   -3.2280    0.0000 C   0  0  0  0  0  0  0  0  0  0  0  0
    7.1974   -3.6405    0.0000 H   0  0  0  0  0  0  0  0  0  0  0  0
    6.8955   -2.5135    0.0000 H   0  0  0  0  0  0  0  0  0  0  0  0
    5.7685   -2.8155    0.0000 H   0  0  0  0  0  0  0  0  0  0  0  0
    6.4830   -7.5148    0.0000 C   0  0  0  0  0  0  0  0  0  0  0  0
    7.3080   -7.5148    0.0000 H   0  0  0  0  0  0  0  0  0  0  0  0
    6.0705   -8.2293    0.0000 C   0  0  0  0  0  0  0  0  0  0  0  0
    6.4830   -8.9438    0.0000 H   0  0  0  0  0  0  0  0  0  0  0  0
  1  2  1  0  0  0  0
  2  3  1  0  0  0  0
  3  4  2  0  0  0  0
  3  5  1  0  0  0  0
  5  6  1  0  0  0  0
  3  7  1  0  0  0  0
  7  8  1  0  0  0  0
  8  9  4  0  0  0  0
  9 10  1  0  0  0  0
  9 11  4  0  0  0  0
 11 12  1  0  0  0  0
 11 13  4  0  0  0  0
 13 14  1  0  0  0  0
 14 15  1  0  0  0  0
 14 16  1  0  0  0  0
 14 17  1  0  0  0  0
 17 18  1  0  0  0  0
 17 19  1  0  0  0  0
 19 20  2  0  0  0  0
 19 21  1  0  0  0  0
 21 22  1  0  0  0  0
 21 23  1  0  0  0  0
 23 24  1  0  0  0  0
 23 25  1  0  0  0  0
 25 26  2  0  0  0  0
 25 27  1  0  0  0  0
 27 28  1  0  0  0  0
 28 29  1  0  0  0  0
 28 30  1  0  0  0  0
 28 31  1  0  0  0  0
 31 32  1  0  0  0  0
 31 33  1  0  0  0  0
 31 34  1  0  0  0  0
 34 35  1  0  0  0  0
 34 36  1  0  0  0  0
 34 37  1  0  0  0  0
 27 37  1  0  0  0  0
 37 38  1  0  0  0  0
 37 39  1  0  0  0  0
 39 40  2  0  0  0  0
 39 41  1  0  0  0  0
 41 42  1  0  0  0  0
 41 43  1  0  0  0  0
 43 44  1  0  0  0  0
 43 45  1  0  0  0  0
 45 46  2  0  0  0  0
 45 47  1  0  0  0  0
 47 48  1  0  0  0  0
 47 49  1  0  0  0  0
 43 50  1  0  0  0  0
 50 51  1  0  0  0  0
 50 52  1  0  0  0  0
 50 53  1  0  0  0  0
 53 54  4  0  0  0  0
 54 55  1  0  0  0  0
 54 56  4  0  0  0  0
 56 57  1  0  0  0  0
 56 58  4  0  0  0  0
 58 59  1  0  0  0  0
 58 60  4  0  0  0  0
 60 61  1  0  0  0  0
 60 62  4  0  0  0  0
 53 62  4  0  0  0  0
 62 63  1  0  0  0  0
 23 64  1  0  0  0  0
 64 65  1  0  0  0  0
 64 66  1  0  0  0  0
 64 67  1  0  0  0  0
 17 68  1  0  0  0  0
 68 69  1  0  0  0  0
 68 70  1  0  0  0  0
 70 71  2  0  0  0  0
 70 72  1  0  0  0  0
 72 73  1  0  0  0  0
 72 74  1  0  0  0  0
 72 75  1  0  0  0  0
 13 76  4  0  0  0  0
 76 77  1  0  0  0  0
 76 78  4  0  0  0  0
  8 78  4  0  0  0  0
 78 79  1  0  0  0  0
M  END
> <pActivity>
4.826813731587725

$$$$
CHEMBL3741973
  Mrv2316 04152410472D          

100103  0  0  0  0            999 V2000
    4.7288  -13.3660    0.0000 H   0  0  0  0  0  0  0  0  0  0  0  0
    5.3524  -12.8259    0.0000 O   0  0  0  0  0  0  0  0  0  0  0  0
    5.1965  -12.0158    0.0000 P   0  0  0  0  0  0  0  0  0  0  0  0
    6.0067  -11.8598    0.0000 O   0  0  0  0  0  0  0  0  0  0  0  0
    4.3864  -12.1717    0.0000 O   0  0  0  0  0  0  0  0  0  0  0  0
    3.8463  -11.5480    0.0000 H   0  0  0  0  0  0  0  0  0  0  0  0
    5.0406  -11.2056    0.0000 O   0  0  0  0  0  0  0  0  0  0  0  0
    5.6643  -10.6655    0.0000 C   0  0  0  0  0  0  0  0  0  0  0  0
    5.5084   -9.8554    0.0000 C   0  0  0  0  0  0  0  0  0  0  0  0
    4.7288   -9.5854    0.0000 H   0  0  0  0  0  0  0  0  0  0  0  0
    6.1320   -9.3153    0.0000 C   0  0  0  0  0  0  0  0  0  0  0  0
    6.7556   -8.7752    0.0000 H   0  0  0  0  0  0  0  0  0  0  0  0
    6.9116   -9.5854    0.0000 C   0  0  0  0  0  0  0  0  0  0  0  0
    7.5352   -9.0453    0.0000 C   0  0  0  0  0  0  0  0  0  0  0  0
    8.1106   -9.6365    0.0000 H   0  0  0  0  0  0  0  0  0  0  0  0
    8.3530   -8.9367    0.0000 H   0  0  0  0  0  0  0  0  0  0  0  0
    7.3793   -8.2351    0.0000 C   0  0  0  0  0  0  0  0  0  0  0  0
    8.1588   -8.5052    0.0000 H   0  0  0  0  0  0  0  0  0  0  0  0
    6.5997   -7.9651    0.0000 C   0  0  0  0  0  0  0  0  0  0  0  0
    5.9761   -8.5052    0.0000 O   0  0  0  0  0  0  0  0  0  0  0  0
    6.4438   -7.1550    0.0000 N   0  0  0  0  0  0  0  0  0  0  0  0
    7.0675   -6.6149    0.0000 H   0  0  0  0  0  0  0  0  0  0  0  0
    5.6643   -6.8849    0.0000 C   0  0  0  0  0  0  0  0  0  0  0  0
    6.2879   -6.3448    0.0000 H   0  0  0  0  0  0  0  0  0  0  0  0
    5.5084   -6.0748    0.0000 C   0  0  0  0  0  0  0  0  0  0  0  0
    6.1320   -5.5347    0.0000 O   0  0  0  0  0  0  0  0  0  0  0  0
    4.7288   -5.8047    0.0000 N   0  0  0  0  0  0  0  0  0  0  0  0
    4.0521   -6.2767    0.0000 C   0  0  0  0  0  0  0  0  0  0  0  0
    3.3613   -6.7277    0.0000 H   0  0  0  0  0  0  0  0  0  0  0  0
    4.8230   -6.5705    0.0000 H   0  0  0  0  0  0  0  0  0  0  0  0
    3.3942   -5.7790    0.0000 C   0  0  0  0  0  0  0  0  0  0  0  0
    2.6980   -5.3363    0.0000 H   0  0  0  0  0  0  0  0  0  0  0  0
    2.5853   -5.9414    0.0000 H   0  0  0  0  0  0  0  0  0  0  0  0
    3.6642   -4.9994    0.0000 C   0  0  0  0  0  0  0  0  0  0  0  0
    3.5652   -4.1804    0.0000 H   0  0  0  0  0  0  0  0  0  0  0  0
    2.9298   -4.6235    0.0000 H   0  0  0  0  0  0  0  0  0  0  0  0
    4.4891   -5.0153    0.0000 C   0  0  0  0  0  0  0  0  0  0  0  0
    5.3013   -5.1601    0.0000 H   0  0  0  0  0  0  0  0  0  0  0  0
    4.9868   -4.3574    0.0000 C   0  0  0  0  0  0  0  0  0  0  0  0
    5.8055   -4.4594    0.0000 O   0  0  0  0  0  0  0  0  0  0  0  0
    4.6659   -3.5974    0.0000 N   0  0  0  0  0  0  0  0  0  0  0  0
    3.8472   -3.4953    0.0000 H   0  0  0  0  0  0  0  0  0  0  0  0
    5.1636   -2.9394    0.0000 C   0  0  0  0  0  0  0  0  0  0  0  0
    5.4845   -3.6994    0.0000 H   0  0  0  0  0  0  0  0  0  0  0  0
    5.9822   -3.0415    0.0000 C   0  0  0  0  0  0  0  0  0  0  0  0
    6.4800   -2.3835    0.0000 O   0  0  0  0  0  0  0  0  0  0  0  0
    6.3032   -3.8015    0.0000 N   0  0  0  0  0  0  0  0  0  0  0  0
    6.9890   -4.2601    0.0000 H   0  0  0  0  0  0  0  0  0  0  0  0
    7.0806   -3.5253    0.0000 H   0  0  0  0  0  0  0  0  0  0  0  0
    4.8426   -2.1794    0.0000 C   0  0  0  0  0  0  0  0  0  0  0  0
    4.1569   -1.7208    0.0000 H   0  0  0  0  0  0  0  0  0  0  0  0
    4.0652   -2.4556    0.0000 H   0  0  0  0  0  0  0  0  0  0  0  0
    5.3404   -1.5215    0.0000 C   0  0  0  0  0  0  0  0  0  0  0  0
    5.0194   -0.7614    0.0000 C   0  0  0  0  0  0  0  0  0  0  0  0
    4.2008   -0.6594    0.0000 H   0  0  0  0  0  0  0  0  0  0  0  0
    5.5171   -0.1035    0.0000 C   0  0  0  0  0  0  0  0  0  0  0  0
    5.1962    0.6565    0.0000 H   0  0  0  0  0  0  0  0  0  0  0  0
    6.3358   -0.2056    0.0000 C   0  0  0  0  0  0  0  0  0  0  0  0
    6.8335    0.4524    0.0000 H   0  0  0  0  0  0  0  0  0  0  0  0
    6.6567   -0.9656    0.0000 C   0  0  0  0  0  0  0  0  0  0  0  0
    7.4754   -1.0676    0.0000 H   0  0  0  0  0  0  0  0  0  0  0  0
    6.1590   -1.6235    0.0000 C   0  0  0  0  0  0  0  0  0  0  0  0
    5.6613   -2.2815    0.0000 H   0  0  0  0  0  0  0  0  0  0  0  0
    5.0406   -7.4250    0.0000 C   0  0  0  0  0  0  0  0  0  0  0  0
    4.8164   -8.2189    0.0000 H   0  0  0  0  0  0  0  0  0  0  0  0
    5.5435   -8.0790    0.0000 H   0  0  0  0  0  0  0  0  0  0  0  0
    4.2611   -7.1550    0.0000 C   0  0  0  0  0  0  0  0  0  0  0  0
    4.4170   -7.9651    0.0000 H   0  0  0  0  0  0  0  0  0  0  0  0
    3.4758   -6.9019    0.0000 H   0  0  0  0  0  0  0  0  0  0  0  0
    3.6374   -7.6950    0.0000 C   0  0  0  0  0  0  0  0  0  0  0  0
    3.1171   -8.3352    0.0000 H   0  0  0  0  0  0  0  0  0  0  0  0
    3.6503   -8.5199    0.0000 H   0  0  0  0  0  0  0  0  0  0  0  0
    2.8579   -7.4250    0.0000 C   0  0  0  0  0  0  0  0  0  0  0  0
    2.5791   -6.6485    0.0000 H   0  0  0  0  0  0  0  0  0  0  0  0
    2.0598   -7.2159    0.0000 H   0  0  0  0  0  0  0  0  0  0  0  0
    2.2342   -7.9651    0.0000 N   0  0  0  0  0  0  0  0  0  0  0  0
    1.4343   -8.1670    0.0000 H   0  0  0  0  0  0  0  0  0  0  0  0
    1.9013   -8.7199    0.0000 H   0  0  0  0  0  0  0  0  0  0  0  0
    8.0029   -7.6950    0.0000 N   0  0  0  0  0  0  0  0  0  0  0  0
    7.8470   -6.8849    0.0000 H   0  0  0  0  0  0  0  0  0  0  0  0
    8.7825   -7.9651    0.0000 C   0  0  0  0  0  0  0  0  0  0  0  0
    8.9384   -8.7752    0.0000 O   0  0  0  0  0  0  0  0  0  0  0  0
    9.4061   -7.4250    0.0000 C   0  0  0  0  0  0  0  0  0  0  0  0
    9.6304   -6.6311    0.0000 H   0  0  0  0  0  0  0  0  0  0  0  0
    8.9032   -6.7710    0.0000 H   0  0  0  0  0  0  0  0  0  0  0  0
   10.1857   -7.6950    0.0000 C   0  0  0  0  0  0  0  0  0  0  0  0
   10.8093   -7.1550    0.0000 C   0  0  0  0  0  0  0  0  0  0  0  0
   10.6534   -6.3448    0.0000 H   0  0  0  0  0  0  0  0  0  0  0  0
   11.5889   -7.4250    0.0000 C   0  0  0  0  0  0  0  0  0  0  0  0
   12.2125   -6.8849    0.0000 H   0  0  0  0  0  0  0  0  0  0  0  0
   11.7448   -8.2351    0.0000 C   0  0  0  0  0  0  0  0  0  0  0  0
   12.5243   -8.5052    0.0000 H   0  0  0  0  0  0  0  0  0  0  0  0
   11.1211   -8.7752    0.0000 C   0  0  0  0  0  0  0  0  0  0  0  0
   11.2770   -9.5854    0.0000 H   0  0  0  0  0  0  0  0  0  0  0  0
   10.3416   -8.5052    0.0000 C   0  0  0  0  0  0  0  0  0  0  0  0
    9.7179   -9.0453    0.0000 H   0  0  0  0  0  0  0  0  0  0  0  0
    7.0675  -10.3955    0.0000 C   0  0  0  0  0  0  0  0  0  0  0  0
    7.8470  -10.6655    0.0000 H   0  0  0  0  0  0  0  0  0  0  0  0
    6.4438  -10.9356    0.0000 C   0  0  0  0  0  0  0  0  0  0  0  0
    6.5997  -11.7457    0.0000 H   0  0  0  0  0  0  0  0  0  0  0  0
  1  2  1  0  0  0  0
  2  3  1  0  0  0  0
  3  4  2  0  0  0  0
  3  5  1  0  0  0  0
  5  6  1  0  0  0  0
  3  7  1  0  0  0  0
  7  8  1  0  0  0  0
  8  9  4  0  0  0  0
  9 10  1  0  0  0  0
  9 11  4  0  0  0  0
 11 12  1  0  0  0  0
 11 13  4  0  0  0  0
 13 14  1  0  0  0  0
 14 15  1  0  0  0  0
 14 16  1  0  0  0  0
 14 17  1  0  0  0  0
 17 18  1  0  0  0  0
 17 19  1  0  0  0  0
 19 20  2  0  0  0  0
 19 21  1  0  0  0  0
 21 22  1  0  0  0  0
 21 23  1  0  0  0  0
 23 24  1  0  0  0  0
 23 25  1  0  0  0  0
 25 26  2  0  0  0  0
 25 27  1  0  0  0  0
 27 28  1  0  0  0  0
 28 29  1  0  0  0  0
 28 30  1  0  0  0  0
 28 31  1  0  0  0  0
 31 32  1  0  0  0  0
 31 33  1  0  0  0  0
 31 34  1  0  0  0  0
 34 35  1  0  0  0  0
 34 36  1  0  0  0  0
 34 37  1  0  0  0  0
 27 37  1  0  0  0  0
 37 38  1  0  0  0  0
 37 39  1  0  0  0  0
 39 40  2  0  0  0  0
 39 41  1  0  0  0  0
 41 42  1  0  0  0  0
 41 43  1  0  0  0  0
 43 44  1  0  0  0  0
 43 45  1  0  0  0  0
 45 46  2  0  0  0  0
 45 47  1  0  0  0  0
 47 48  1  0  0  0  0
 47 49  1  0  0  0  0
 43 50  1  0  0  0  0
 50 51  1  0  0  0  0
 50 52  1  0  0  0  0
 50 53  1  0  0  0  0
 53 54  4  0  0  0  0
 54 55  1  0  0  0  0
 54 56  4  0  0  0  0
 56 57  1  0  0  0  0
 56 58  4  0  0  0  0
 58 59  1  0  0  0  0
 58 60  4  0  0  0  0
 60 61  1  0  0  0  0
 60 62  4  0  0  0  0
 53 62  4  0  0  0  0
 62 63  1  0  0  0  0
 23 64  1  0  0  0  0
 64 65  1  0  0  0  0
 64 66  1  0  0  0  0
 64 67  1  0  0  0  0
 67 68  1  0  0  0  0
 67 69  1  0  0  0  0
 67 70  1  0  0  0  0
 70 71  1  0  0  0  0
 70 72  1  0  0  0  0
 70 73  1  0  0  0  0
 73 74  1  0  0  0  0
 73 75  1  0  0  0  0
 73 76  1  0  0  0  0
 76 77  1  0  0  0  0
 76 78  1  0  0  0  0
 17 79  1  0  0  0  0
 79 80  1  0  0  0  0
 79 81  1  0  0  0  0
 81 82  2  0  0  0  0
 81 83  1  0  0  0  0
 83 84  1  0  0  0  0
 83 85  1  0  0  0  0
 83 86  1  0  0  0  0
 86 87  4  0  0  0  0
 87 88  1  0  0  0  0
 87 89  4  0  0  0  0
 89 90  1  0  0  0  0
 89 91  4  0  0  0  0
 91 92  1  0  0  0  0
 91 93  4  0  0  0  0
 93 94  1  0  0  0  0
 93 95  4  0  0  0  0
 86 95  4  0  0  0  0
 95 96  1  0  0  0  0
 13 97  4  0  0  0  0
 97 98  1  0  0  0  0
 97 99  4  0  0  0  0
  8 99  4  0  0  0  0
 99100  1  0  0  0  0
M  END
> <pActivity>
5.387216143280264

$$$$
CHEMBL3739974
  Mrv2316 04152410472D          

 97100  0  0  0  0            999 V2000
   -2.1604   -9.0037    0.0000 H   0  0  0  0  0  0  0  0  0  0  0  0
   -1.3502   -8.8478    0.0000 O   0  0  0  0  0  0  0  0  0  0  0  0
   -1.0802   -8.0682    0.0000 P   0  0  0  0  0  0  0  0  0  0  0  0
   -0.3006   -8.3383    0.0000 O   0  0  0  0  0  0  0  0  0  0  0  0
   -1.8597   -7.7982    0.0000 O   0  0  0  0  0  0  0  0  0  0  0  0
   -2.0156   -6.9880    0.0000 H   0  0  0  0  0  0  0  0  0  0  0  0
   -0.8101   -7.2887    0.0000 O   0  0  0  0  0  0  0  0  0  0  0  0
    0.0000   -7.1327    0.0000 C   0  0  0  0  0  0  0  0  0  0  0  0
    0.2700   -6.3532    0.0000 C   0  0  0  0  0  0  0  0  0  0  0  0
   -0.5401   -6.5091    0.0000 H   0  0  0  0  0  0  0  0  0  0  0  0
    1.0802   -6.1973    0.0000 C   0  0  0  0  0  0  0  0  0  0  0  0
    1.8903   -6.0414    0.0000 H   0  0  0  0  0  0  0  0  0  0  0  0
    1.6203   -6.8209    0.0000 C   0  0  0  0  0  0  0  0  0  0  0  0
    2.4304   -6.6650    0.0000 C   0  0  0  0  0  0  0  0  0  0  0  0
    2.6332   -7.4647    0.0000 H   0  0  0  0  0  0  0  0  0  0  0  0
    3.1929   -6.9799    0.0000 H   0  0  0  0  0  0  0  0  0  0  0  0
    2.7004   -5.8855    0.0000 C   0  0  0  0  0  0  0  0  0  0  0  0
    2.9705   -5.1059    0.0000 H   0  0  0  0  0  0  0  0  0  0  0  0
    2.1604   -5.2618    0.0000 C   0  0  0  0  0  0  0  0  0  0  0  0
    1.3502   -5.4177    0.0000 O   0  0  0  0  0  0  0  0  0  0  0  0
    2.4304   -4.4823    0.0000 N   0  0  0  0  0  0  0  0  0  0  0  0
    2.7004   -3.7027    0.0000 H   0  0  0  0  0  0  0  0  0  0  0  0
    1.8903   -3.8586    0.0000 C   0  0  0  0  0  0  0  0  0  0  0  0
    1.3502   -3.2350    0.0000 H   0  0  0  0  0  0  0  0  0  0  0  0
    2.1604   -3.0791    0.0000 C   0  0  0  0  0  0  0  0  0  0  0  0
    2.9705   -2.9232    0.0000 O   0  0  0  0  0  0  0  0  0  0  0  0
    1.6203   -2.4554    0.0000 N   0  0  0  0  0  0  0  0  0  0  0  0
    0.7983   -2.5258    0.0000 C   0  0  0  0  0  0  0  0  0  0  0  0
   -0.0172   -2.6510    0.0000 H   0  0  0  0  0  0  0  0  0  0  0  0
    0.2910   -3.1764    0.0000 H   0  0  0  0  0  0  0  0  0  0  0  0
    0.4773   -1.7658    0.0000 C   0  0  0  0  0  0  0  0  0  0  0  0
   -0.1443   -1.2234    0.0000 H   0  0  0  0  0  0  0  0  0  0  0  0
   -0.3199   -1.9778    0.0000 H   0  0  0  0  0  0  0  0  0  0  0  0
    1.1010   -1.2257    0.0000 C   0  0  0  0  0  0  0  0  0  0  0  0
    1.4247   -0.4669    0.0000 H   0  0  0  0  0  0  0  0  0  0  0  0
    0.6529   -0.5330    0.0000 H   0  0  0  0  0  0  0  0  0  0  0  0
    1.8073   -1.6519    0.0000 C   0  0  0  0  0  0  0  0  0  0  0  0
    2.4383   -2.1834    0.0000 H   0  0  0  0  0  0  0  0  0  0  0  0
    2.5674   -1.3310    0.0000 C   0  0  0  0  0  0  0  0  0  0  0  0
    3.2253   -1.8287    0.0000 O   0  0  0  0  0  0  0  0  0  0  0  0
    2.6694   -0.5123    0.0000 N   0  0  0  0  0  0  0  0  0  0  0  0
    2.0115   -0.0146    0.0000 H   0  0  0  0  0  0  0  0  0  0  0  0
    3.4294   -0.1914    0.0000 C   0  0  0  0  0  0  0  0  0  0  0  0
    3.3274   -1.0100    0.0000 H   0  0  0  0  0  0  0  0  0  0  0  0
    4.0874   -0.6891    0.0000 C   0  0  0  0  0  0  0  0  0  0  0  0
    4.8474   -0.3682    0.0000 O   0  0  0  0  0  0  0  0  0  0  0  0
    3.9853   -1.5078    0.0000 N   0  0  0  0  0  0  0  0  0  0  0  0
    4.3499   -2.2478    0.0000 H   0  0  0  0  0  0  0  0  0  0  0  0
    4.7967   -1.6573    0.0000 H   0  0  0  0  0  0  0  0  0  0  0  0
    3.5315    0.6273    0.0000 C   0  0  0  0  0  0  0  0  0  0  0  0
    3.1669    1.3673    0.0000 H   0  0  0  0  0  0  0  0  0  0  0  0
    2.7202    0.7768    0.0000 H   0  0  0  0  0  0  0  0  0  0  0  0
    4.2915    0.9482    0.0000 C   0  0  0  0  0  0  0  0  0  0  0  0
    4.3936    1.7669    0.0000 C   0  0  0  0  0  0  0  0  0  0  0  0
    3.7356    2.2646    0.0000 H   0  0  0  0  0  0  0  0  0  0  0  0
    5.1536    2.0878    0.0000 C   0  0  0  0  0  0  0  0  0  0  0  0
    5.2557    2.9065    0.0000 H   0  0  0  0  0  0  0  0  0  0  0  0
    5.8116    1.5901    0.0000 C   0  0  0  0  0  0  0  0  0  0  0  0
    6.5716    1.9110    0.0000 H   0  0  0  0  0  0  0  0  0  0  0  0
    5.7095    0.7714    0.0000 C   0  0  0  0  0  0  0  0  0  0  0  0
    6.3674    0.2737    0.0000 H   0  0  0  0  0  0  0  0  0  0  0  0
    4.9495    0.4505    0.0000 C   0  0  0  0  0  0  0  0  0  0  0  0
    4.1895    0.1296    0.0000 H   0  0  0  0  0  0  0  0  0  0  0  0
    1.0802   -4.0145    0.0000 C   0  0  0  0  0  0  0  0  0  0  0  0
    0.4400   -3.4942    0.0000 H   0  0  0  0  0  0  0  0  0  0  0  0
    0.2553   -4.0274    0.0000 H   0  0  0  0  0  0  0  0  0  0  0  0
    0.8101   -4.7941    0.0000 C   0  0  0  0  0  0  0  0  0  0  0  0
    1.6203   -4.6382    0.0000 H   0  0  0  0  0  0  0  0  0  0  0  0
    0.5401   -5.5736    0.0000 H   0  0  0  0  0  0  0  0  0  0  0  0
    0.0000   -4.9500    0.0000 C   0  0  0  0  0  0  0  0  0  0  0  0
   -0.5660   -4.3498    0.0000 H   0  0  0  0  0  0  0  0  0  0  0  0
   -0.8067   -5.1230    0.0000 H   0  0  0  0  0  0  0  0  0  0  0  0
   -0.2700   -5.7296    0.0000 C   0  0  0  0  0  0  0  0  0  0  0  0
    0.3536   -5.1895    0.0000 H   0  0  0  0  0  0  0  0  0  0  0  0
    0.5095   -5.9996    0.0000 H   0  0  0  0  0  0  0  0  0  0  0  0
   -1.0802   -5.8855    0.0000 N   0  0  0  0  0  0  0  0  0  0  0  0
   -1.8726   -5.6559    0.0000 H   0  0  0  0  0  0  0  0  0  0  0  0
   -1.7363   -6.3856    0.0000 H   0  0  0  0  0  0  0  0  0  0  0  0
    3.5106   -5.7296    0.0000 N   0  0  0  0  0  0  0  0  0  0  0  0
    4.0507   -6.3532    0.0000 H   0  0  0  0  0  0  0  0  0  0  0  0
    3.7806   -4.9500    0.0000 C   0  0  0  0  0  0  0  0  0  0  0  0
    3.2405   -4.3264    0.0000 O   0  0  0  0  0  0  0  0  0  0  0  0
    4.5908   -4.7941    0.0000 C   0  0  0  0  0  0  0  0  0  0  0  0
    4.8608   -4.0145    0.0000 C   0  0  0  0  0  0  0  0  0  0  0  0
    4.3207   -3.3909    0.0000 H   0  0  0  0  0  0  0  0  0  0  0  0
    5.6709   -3.8586    0.0000 C   0  0  0  0  0  0  0  0  0  0  0  0
    5.9410   -3.0791    0.0000 H   0  0  0  0  0  0  0  0  0  0  0  0
    6.2110   -4.4823    0.0000 C   0  0  0  0  0  0  0  0  0  0  0  0
    7.0212   -4.3264    0.0000 H   0  0  0  0  0  0  0  0  0  0  0  0
    5.9410   -5.2618    0.0000 C   0  0  0  0  0  0  0  0  0  0  0  0
    6.4811   -5.8855    0.0000 H   0  0  0  0  0  0  0  0  0  0  0  0
    5.1308   -5.4177    0.0000 C   0  0  0  0  0  0  0  0  0  0  0  0
    4.8608   -6.1973    0.0000 H   0  0  0  0  0  0  0  0  0  0  0  0
    1.3502   -7.6005    0.0000 C   0  0  0  0  0  0  0  0  0  0  0  0
    1.8903   -8.2241    0.0000 H   0  0  0  0  0  0  0  0  0  0  0  0
    0.5401   -7.7564    0.0000 C   0  0  0  0  0  0  0  0  0  0  0  0
    0.2700   -8.5359    0.0000 H   0  0  0  0  0  0  0  0  0  0  0  0
  1  2  1  0  0  0  0
  2  3  1  0  0  0  0
  3  4  2  0  0  0  0
  3  5  1  0  0  0  0
  5  6  1  0  0  0  0
  3  7  1  0  0  0  0
  7  8  1  0  0  0  0
  8  9  4  0  0  0  0
  9 10  1  0  0  0  0
  9 11  4  0  0  0  0
 11 12  1  0  0  0  0
 11 13  4  0  0  0  0
 13 14  1  0  0  0  0
 14 15  1  0  0  0  0
 14 16  1  0  0  0  0
 14 17  1  0  0  0  0
 17 18  1  0  0  0  0
 17 19  1  0  0  0  0
 19 20  2  0  0  0  0
 19 21  1  0  0  0  0
 21 22  1  0  0  0  0
 21 23  1  0  0  0  0
 23 24  1  0  0  0  0
 23 25  1  0  0  0  0
 25 26  2  0  0  0  0
 25 27  1  0  0  0  0
 27 28  1  0  0  0  0
 28 29  1  0  0  0  0
 28 30  1  0  0  0  0
 28 31  1  0  0  0  0
 31 32  1  0  0  0  0
 31 33  1  0  0  0  0
 31 34  1  0  0  0  0
 34 35  1  0  0  0  0
 34 36  1  0  0  0  0
 34 37  1  0  0  0  0
 27 37  1  0  0  0  0
 37 38  1  0  0  0  0
 37 39  1  0  0  0  0
 39 40  2  0  0  0  0
 39 41  1  0  0  0  0
 41 42  1  0  0  0  0
 41 43  1  0  0  0  0
 43 44  1  0  0  0  0
 43 45  1  0  0  0  0
 45 46  2  0  0  0  0
 45 47  1  0  0  0  0
 47 48  1  0  0  0  0
 47 49  1  0  0  0  0
 43 50  1  0  0  0  0
 50 51  1  0  0  0  0
 50 52  1  0  0  0  0
 50 53  1  0  0  0  0
 53 54  4  0  0  0  0
 54 55  1  0  0  0  0
 54 56  4  0  0  0  0
 56 57  1  0  0  0  0
 56 58  4  0  0  0  0
 58 59  1  0  0  0  0
 58 60  4  0  0  0  0
 60 61  1  0  0  0  0
 60 62  4  0  0  0  0
 53 62  4  0  0  0  0
 62 63  1  0  0  0  0
 23 64  1  0  0  0  0
 64 65  1  0  0  0  0
 64 66  1  0  0  0  0
 64 67  1  0  0  0  0
 67 68  1  0  0  0  0
 67 69  1  0  0  0  0
 67 70  1  0  0  0  0
 70 71  1  0  0  0  0
 70 72  1  0  0  0  0
 70 73  1  0  0  0  0
 73 74  1  0  0  0  0
 73 75  1  0  0  0  0
 73 76  1  0  0  0  0
 76 77  1  0  0  0  0
 76 78  1  0  0  0  0
 17 79  1  0  0  0  0
 79 80  1  0  0  0  0
 79 81  1  0  0  0  0
 81 82  2  0  0  0  0
 81 83  1  0  0  0  0
 83 84  4  0  0  0  0
 84 85  1  0  0  0  0
 84 86  4  0  0  0  0
 86 87  1  0  0  0  0
 86 88  4  0  0  0  0
 88 89  1  0  0  0  0
 88 90  4  0  0  0  0
 90 91  1  0  0  0  0
 90 92  4  0  0  0  0
 83 92  4  0  0  0  0
 92 93  1  0  0  0  0
 13 94  4  0  0  0  0
 94 95  1  0  0  0  0
 94 96  4  0  0  0  0
  8 96  4  0  0  0  0
 96 97  1  0  0  0  0
M  END
> <pActivity>
5.455931955649723

$$$$
CHEMBL3740092
  Mrv2316 04152410472D          

101104  0  0  0  0            999 V2000
   -1.4459  -10.2412    0.0000 H   0  0  0  0  0  0  0  0  0  0  0  0
   -0.6358  -10.0853    0.0000 O   0  0  0  0  0  0  0  0  0  0  0  0
   -0.3657   -9.3057    0.0000 P   0  0  0  0  0  0  0  0  0  0  0  0
    0.4138   -9.5758    0.0000 O   0  0  0  0  0  0  0  0  0  0  0  0
   -1.1453   -9.0357    0.0000 O   0  0  0  0  0  0  0  0  0  0  0  0
   -1.3012   -8.2255    0.0000 H   0  0  0  0  0  0  0  0  0  0  0  0
   -0.0957   -8.5262    0.0000 O   0  0  0  0  0  0  0  0  0  0  0  0
    0.7145   -8.3702    0.0000 C   0  0  0  0  0  0  0  0  0  0  0  0
    0.9845   -7.5907    0.0000 C   0  0  0  0  0  0  0  0  0  0  0  0
    0.1744   -7.7466    0.0000 H   0  0  0  0  0  0  0  0  0  0  0  0
    1.7946   -7.4348    0.0000 C   0  0  0  0  0  0  0  0  0  0  0  0
    2.6048   -7.2789    0.0000 H   0  0  0  0  0  0  0  0  0  0  0  0
    2.3347   -8.0584    0.0000 C   0  0  0  0  0  0  0  0  0  0  0  0
    3.1449   -7.9025    0.0000 C   0  0  0  0  0  0  0  0  0  0  0  0
    3.3476   -8.7022    0.0000 H   0  0  0  0  0  0  0  0  0  0  0  0
    3.9074   -8.2174    0.0000 H   0  0  0  0  0  0  0  0  0  0  0  0
    3.4149   -7.1230    0.0000 C   0  0  0  0  0  0  0  0  0  0  0  0
    3.6850   -6.3434    0.0000 H   0  0  0  0  0  0  0  0  0  0  0  0
    2.8748   -6.4993    0.0000 C   0  0  0  0  0  0  0  0  0  0  0  0
    2.0647   -6.6552    0.0000 O   0  0  0  0  0  0  0  0  0  0  0  0
    3.1449   -5.7198    0.0000 N   0  0  0  0  0  0  0  0  0  0  0  0
    3.4149   -4.9402    0.0000 H   0  0  0  0  0  0  0  0  0  0  0  0
    2.6048   -5.0961    0.0000 C   0  0  0  0  0  0  0  0  0  0  0  0
    2.0647   -4.4725    0.0000 H   0  0  0  0  0  0  0  0  0  0  0  0
    2.8748   -4.3166    0.0000 C   0  0  0  0  0  0  0  0  0  0  0  0
    3.6850   -4.1607    0.0000 O   0  0  0  0  0  0  0  0  0  0  0  0
    2.3347   -3.6929    0.0000 N   0  0  0  0  0  0  0  0  0  0  0  0
    1.5127   -3.7633    0.0000 C   0  0  0  0  0  0  0  0  0  0  0  0
    0.6973   -3.8885    0.0000 H   0  0  0  0  0  0  0  0  0  0  0  0
    1.0055   -4.4139    0.0000 H   0  0  0  0  0  0  0  0  0  0  0  0
    1.1918   -3.0033    0.0000 C   0  0  0  0  0  0  0  0  0  0  0  0
    0.5702   -2.4609    0.0000 H   0  0  0  0  0  0  0  0  0  0  0  0
    0.3945   -3.2153    0.0000 H   0  0  0  0  0  0  0  0  0  0  0  0
    1.8154   -2.4632    0.0000 C   0  0  0  0  0  0  0  0  0  0  0  0
    2.1392   -1.7044    0.0000 H   0  0  0  0  0  0  0  0  0  0  0  0
    1.3674   -1.7705    0.0000 H   0  0  0  0  0  0  0  0  0  0  0  0
    2.5218   -2.8894    0.0000 C   0  0  0  0  0  0  0  0  0  0  0  0
    3.1528   -3.4209    0.0000 H   0  0  0  0  0  0  0  0  0  0  0  0
    3.2818   -2.5685    0.0000 C   0  0  0  0  0  0  0  0  0  0  0  0
    3.9398   -3.0662    0.0000 O   0  0  0  0  0  0  0  0  0  0  0  0
    3.3839   -1.7498    0.0000 N   0  0  0  0  0  0  0  0  0  0  0  0
    2.7259   -1.2521    0.0000 H   0  0  0  0  0  0  0  0  0  0  0  0
    4.1439   -1.4289    0.0000 C   0  0  0  0  0  0  0  0  0  0  0  0
    4.0418   -2.2475    0.0000 H   0  0  0  0  0  0  0  0  0  0  0  0
    4.8019   -1.9266    0.0000 C   0  0  0  0  0  0  0  0  0  0  0  0
    5.5619   -1.6057    0.0000 O   0  0  0  0  0  0  0  0  0  0  0  0
    4.6998   -2.7453    0.0000 N   0  0  0  0  0  0  0  0  0  0  0  0
    5.0644   -3.4853    0.0000 H   0  0  0  0  0  0  0  0  0  0  0  0
    5.5111   -2.8948    0.0000 H   0  0  0  0  0  0  0  0  0  0  0  0
    4.2460   -0.6102    0.0000 C   0  0  0  0  0  0  0  0  0  0  0  0
    3.8814    0.1298    0.0000 H   0  0  0  0  0  0  0  0  0  0  0  0
    3.4346   -0.4607    0.0000 H   0  0  0  0  0  0  0  0  0  0  0  0
    5.0060   -0.2893    0.0000 C   0  0  0  0  0  0  0  0  0  0  0  0
    5.1081    0.5294    0.0000 C   0  0  0  0  0  0  0  0  0  0  0  0
    4.4501    1.0271    0.0000 H   0  0  0  0  0  0  0  0  0  0  0  0
    5.8681    0.8503    0.0000 C   0  0  0  0  0  0  0  0  0  0  0  0
    5.9701    1.6690    0.0000 H   0  0  0  0  0  0  0  0  0  0  0  0
    6.5260    0.3526    0.0000 C   0  0  0  0  0  0  0  0  0  0  0  0
    7.2860    0.6735    0.0000 H   0  0  0  0  0  0  0  0  0  0  0  0
    6.4240   -0.4661    0.0000 C   0  0  0  0  0  0  0  0  0  0  0  0
    7.0819   -0.9638    0.0000 H   0  0  0  0  0  0  0  0  0  0  0  0
    5.6639   -0.7870    0.0000 C   0  0  0  0  0  0  0  0  0  0  0  0
    4.9039   -1.1079    0.0000 H   0  0  0  0  0  0  0  0  0  0  0  0
    1.7946   -5.2520    0.0000 C   0  0  0  0  0  0  0  0  0  0  0  0
    1.1545   -4.7317    0.0000 H   0  0  0  0  0  0  0  0  0  0  0  0
    0.9697   -5.2649    0.0000 H   0  0  0  0  0  0  0  0  0  0  0  0
    1.5246   -6.0316    0.0000 C   0  0  0  0  0  0  0  0  0  0  0  0
    2.3347   -5.8757    0.0000 H   0  0  0  0  0  0  0  0  0  0  0  0
    1.2546   -6.8111    0.0000 H   0  0  0  0  0  0  0  0  0  0  0  0
    0.7145   -6.1875    0.0000 C   0  0  0  0  0  0  0  0  0  0  0  0
    0.1485   -5.5873    0.0000 H   0  0  0  0  0  0  0  0  0  0  0  0
   -0.0922   -6.3605    0.0000 H   0  0  0  0  0  0  0  0  0  0  0  0
    0.4444   -6.9671    0.0000 C   0  0  0  0  0  0  0  0  0  0  0  0
    1.2240   -7.2371    0.0000 H   0  0  0  0  0  0  0  0  0  0  0  0
    1.0681   -6.4270    0.0000 H   0  0  0  0  0  0  0  0  0  0  0  0
   -0.3657   -7.1230    0.0000 N   0  0  0  0  0  0  0  0  0  0  0  0
   -1.1581   -6.8934    0.0000 H   0  0  0  0  0  0  0  0  0  0  0  0
   -1.0218   -7.6231    0.0000 H   0  0  0  0  0  0  0  0  0  0  0  0
    4.2251   -6.9671    0.0000 N   0  0  0  0  0  0  0  0  0  0  0  0
    4.7651   -7.5907    0.0000 H   0  0  0  0  0  0  0  0  0  0  0  0
    4.4951   -6.1875    0.0000 C   0  0  0  0  0  0  0  0  0  0  0  0
    3.9550   -5.5639    0.0000 O   0  0  0  0  0  0  0  0  0  0  0  0
    5.3052   -6.0316    0.0000 C   0  0  0  0  0  0  0  0  0  0  0  0
    5.8453   -6.6552    0.0000 H   0  0  0  0  0  0  0  0  0  0  0  0
    5.5753   -5.2520    0.0000 C   0  0  0  0  0  0  0  0  0  0  0  0
    5.0352   -4.6284    0.0000 H   0  0  0  0  0  0  0  0  0  0  0  0
    6.3854   -5.0961    0.0000 C   0  0  0  0  0  0  0  0  0  0  0  0
    6.6555   -4.3166    0.0000 C   0  0  0  0  0  0  0  0  0  0  0  0
    6.1154   -3.6929    0.0000 H   0  0  0  0  0  0  0  0  0  0  0  0
    7.4656   -4.1607    0.0000 C   0  0  0  0  0  0  0  0  0  0  0  0
    7.7356   -3.3811    0.0000 H   0  0  0  0  0  0  0  0  0  0  0  0
    8.0057   -4.7843    0.0000 C   0  0  0  0  0  0  0  0  0  0  0  0
    8.8158   -4.6284    0.0000 H   0  0  0  0  0  0  0  0  0  0  0  0
    7.7356   -5.5639    0.0000 C   0  0  0  0  0  0  0  0  0  0  0  0
    8.2757   -6.1875    0.0000 H   0  0  0  0  0  0  0  0  0  0  0  0
    6.9255   -5.7198    0.0000 C   0  0  0  0  0  0  0  0  0  0  0  0
    6.6555   -6.4993    0.0000 H   0  0  0  0  0  0  0  0  0  0  0  0
    2.0647   -8.8380    0.0000 C   0  0  0  0  0  0  0  0  0  0  0  0
    2.6048   -9.4616    0.0000 H   0  0  0  0  0  0  0  0  0  0  0  0
    1.2546   -8.9939    0.0000 C   0  0  0  0  0  0  0  0  0  0  0  0
    0.9845   -9.7734    0.0000 H   0  0  0  0  0  0  0  0  0  0  0  0
  1  2  1  0  0  0  0
  2  3  1  0  0  0  0
  3  4  2  0  0  0  0
  3  5  1  0  0  0  0
  5  6  1  0  0  0  0
  3  7  1  0  0  0  0
  7  8  1  0  0  0  0
  8  9  4  0  0  0  0
  9 10  1  0  0  0  0
  9 11  4  0  0  0  0
 11 12  1  0  0  0  0
 11 13  4  0  0  0  0
 13 14  1  0  0  0  0
 14 15  1  0  0  0  0
 14 16  1  0  0  0  0
 14 17  1  0  0  0  0
 17 18  1  0  0  0  0
 17 19  1  0  0  0  0
 19 20  2  0  0  0  0
 19 21  1  0  0  0  0
 21 22  1  0  0  0  0
 21 23  1  0  0  0  0
 23 24  1  0  0  0  0
 23 25  1  0  0  0  0
 25 26  2  0  0  0  0
 25 27  1  0  0  0  0
 27 28  1  0  0  0  0
 28 29  1  0  0  0  0
 28 30  1  0  0  0  0
 28 31  1  0  0  0  0
 31 32  1  0  0  0  0
 31 33  1  0  0  0  0
 31 34  1  0  0  0  0
 34 35  1  0  0  0  0
 34 36  1  0  0  0  0
 34 37  1  0  0  0  0
 27 37  1  0  0  0  0
 37 38  1  0  0  0  0
 37 39  1  0  0  0  0
 39 40  2  0  0  0  0
 39 41  1  0  0  0  0
 41 42  1  0  0  0  0
 41 43  1  0  0  0  0
 43 44  1  0  0  0  0
 43 45  1  0  0  0  0
 45 46  2  0  0  0  0
 45 47  1  0  0  0  0
 47 48  1  0  0  0  0
 47 49  1  0  0  0  0
 43 50  1  0  0  0  0
 50 51  1  0  0  0  0
 50 52  1  0  0  0  0
 50 53  1  0  0  0  0
 53 54  4  0  0  0  0
 54 55  1  0  0  0  0
 54 56  4  0  0  0  0
 56 57  1  0  0  0  0
 56 58  4  0  0  0  0
 58 59  1  0  0  0  0
 58 60  4  0  0  0  0
 60 61  1  0  0  0  0
 60 62  4  0  0  0  0
 53 62  4  0  0  0  0
 62 63  1  0  0  0  0
 23 64  1  0  0  0  0
 64 65  1  0  0  0  0
 64 66  1  0  0  0  0
 64 67  1  0  0  0  0
 67 68  1  0  0  0  0
 67 69  1  0  0  0  0
 67 70  1  0  0  0  0
 70 71  1  0  0  0  0
 70 72  1  0  0  0  0
 70 73  1  0  0  0  0
 73 74  1  0  0  0  0
 73 75  1  0  0  0  0
 73 76  1  0  0  0  0
 76 77  1  0  0  0  0
 76 78  1  0  0  0  0
 17 79  1  0  0  0  0
 79 80  1  0  0  0  0
 79 81  1  0  0  0  0
 81 82  2  0  0  0  0
 81 83  1  0  0  0  0
 83 84  1  4  0  0  0
 83 85  2  0  0  0  0
 85 86  1  0  0  0  0
 85 87  1  0  0  0  0
 87 88  4  0  0  0  0
 88 89  1  0  0  0  0
 88 90  4  0  0  0  0
 90 91  1  0  0  0  0
 90 92  4  0  0  0  0
 92 93  1  0  0  0  0
 92 94  4  0  0  0  0
 94 95  1  0  0  0  0
 94 96  4  0  0  0  0
 87 96  4  0  0  0  0
 96 97  1  0  0  0  0
 13 98  4  0  0  0  0
 98 99  1  0  0  0  0
 98100  4  0  0  0  0
  8100  4  0  0  0  0
100101  1  0  0  0  0
M  END
> <pActivity>
5.180456064458131

$$$$
CHEMBL3742329
  Mrv2316 04152410472D          

 81 83  0  0  0  0            999 V2000
    1.8938    0.2097    0.0000 H   0  0  0  0  0  0  0  0  0  0  0  0
    2.3063   -0.5048    0.0000 O   0  0  0  0  0  0  0  0  0  0  0  0
    3.1313   -0.5048    0.0000 P   0  0  0  0  0  0  0  0  0  0  0  0
    3.1313   -1.3298    0.0000 O   0  0  0  0  0  0  0  0  0  0  0  0
    3.1313    0.3202    0.0000 O   0  0  0  0  0  0  0  0  0  0  0  0
    3.8458    0.7327    0.0000 H   0  0  0  0  0  0  0  0  0  0  0  0
    3.9563   -0.5048    0.0000 O   0  0  0  0  0  0  0  0  0  0  0  0
    4.3688   -1.2193    0.0000 C   0  0  0  0  0  0  0  0  0  0  0  0
    5.1938   -1.2193    0.0000 C   0  0  0  0  0  0  0  0  0  0  0  0
    5.6063   -0.5048    0.0000 H   0  0  0  0  0  0  0  0  0  0  0  0
    5.6063   -1.9337    0.0000 C   0  0  0  0  0  0  0  0  0  0  0  0
    6.4313   -1.9337    0.0000 H   0  0  0  0  0  0  0  0  0  0  0  0
    5.1938   -2.6482    0.0000 C   0  0  0  0  0  0  0  0  0  0  0  0
    5.6063   -3.3627    0.0000 C   0  0  0  0  0  0  0  0  0  0  0  0
    6.4313   -3.3627    0.0000 H   0  0  0  0  0  0  0  0  0  0  0  0
    5.1938   -4.0771    0.0000 C   0  0  0  0  0  0  0  0  0  0  0  0
    4.3688   -4.0771    0.0000 H   0  0  0  0  0  0  0  0  0  0  0  0
    5.6063   -4.7916    0.0000 C   0  0  0  0  0  0  0  0  0  0  0  0
    6.4313   -4.7916    0.0000 O   0  0  0  0  0  0  0  0  0  0  0  0
    5.1938   -5.5061    0.0000 N   0  0  0  0  0  0  0  0  0  0  0  0
    4.3688   -5.5061    0.0000 H   0  0  0  0  0  0  0  0  0  0  0  0
    5.6063   -6.2206    0.0000 C   0  0  0  0  0  0  0  0  0  0  0  0
    4.7813   -6.2206    0.0000 H   0  0  0  0  0  0  0  0  0  0  0  0
    5.1938   -6.9350    0.0000 C   0  0  0  0  0  0  0  0  0  0  0  0
    4.3688   -6.9350    0.0000 O   0  0  0  0  0  0  0  0  0  0  0  0
    5.6063   -7.6495    0.0000 N   0  0  0  0  0  0  0  0  0  0  0  0
    6.4268   -7.7357    0.0000 C   0  0  0  0  0  0  0  0  0  0  0  0
    7.2020   -7.4536    0.0000 H   0  0  0  0  0  0  0  0  0  0  0  0
    6.6264   -6.9352    0.0000 H   0  0  0  0  0  0  0  0  0  0  0  0
    6.5983   -8.5427    0.0000 C   0  0  0  0  0  0  0  0  0  0  0  0
    7.1062   -9.1928    0.0000 H   0  0  0  0  0  0  0  0  0  0  0  0
    7.4213   -8.4852    0.0000 H   0  0  0  0  0  0  0  0  0  0  0  0
    5.8838   -8.9552    0.0000 C   0  0  0  0  0  0  0  0  0  0  0  0
    5.4225   -9.6392    0.0000 H   0  0  0  0  0  0  0  0  0  0  0  0
    6.1929   -9.7201    0.0000 H   0  0  0  0  0  0  0  0  0  0  0  0
    5.2707   -8.4032    0.0000 C   0  0  0  0  0  0  0  0  0  0  0  0
    4.7515   -7.7620    0.0000 H   0  0  0  0  0  0  0  0  0  0  0  0
    4.4638   -8.5747    0.0000 C   0  0  0  0  0  0  0  0  0  0  0  0
    3.9117   -7.9616    0.0000 O   0  0  0  0  0  0  0  0  0  0  0  0
    4.2088   -9.3593    0.0000 N   0  0  0  0  0  0  0  0  0  0  0  0
    4.7608   -9.9724    0.0000 H   0  0  0  0  0  0  0  0  0  0  0  0
    3.4018   -9.5308    0.0000 C   0  0  0  0  0  0  0  0  0  0  0  0
    3.6568   -8.7462    0.0000 H   0  0  0  0  0  0  0  0  0  0  0  0
    2.8498   -8.9178    0.0000 C   0  0  0  0  0  0  0  0  0  0  0  0
    2.0428   -9.0893    0.0000 O   0  0  0  0  0  0  0  0  0  0  0  0
    3.1048   -8.1331    0.0000 N   0  0  0  0  0  0  0  0  0  0  0  0
    2.8866   -7.3375    0.0000 H   0  0  0  0  0  0  0  0  0  0  0  0
    2.3363   -7.8330    0.0000 H   0  0  0  0  0  0  0  0  0  0  0  0
    3.1469  -10.3155    0.0000 C   0  0  0  0  0  0  0  0  0  0  0  0
    3.3651  -11.1111    0.0000 H   0  0  0  0  0  0  0  0  0  0  0  0
    3.9154  -10.6156    0.0000 H   0  0  0  0  0  0  0  0  0  0  0  0
    2.3399  -10.4870    0.0000 C   0  0  0  0  0  0  0  0  0  0  0  0
    2.0850  -11.2716    0.0000 C   0  0  0  0  0  0  0  0  0  0  0  0
    2.6370  -11.8847    0.0000 H   0  0  0  0  0  0  0  0  0  0  0  0
    1.2780  -11.4431    0.0000 C   0  0  0  0  0  0  0  0  0  0  0  0
    1.0231  -12.2278    0.0000 H   0  0  0  0  0  0  0  0  0  0  0  0
    0.7260  -10.8300    0.0000 C   0  0  0  0  0  0  0  0  0  0  0  0
   -0.0810  -11.0016    0.0000 H   0  0  0  0  0  0  0  0  0  0  0  0
    0.9809  -10.0454    0.0000 C   0  0  0  0  0  0  0  0  0  0  0  0
    0.4289   -9.4323    0.0000 H   0  0  0  0  0  0  0  0  0  0  0  0
    1.7879   -9.8739    0.0000 C   0  0  0  0  0  0  0  0  0  0  0  0
    2.5949   -9.7024    0.0000 H   0  0  0  0  0  0  0  0  0  0  0  0
    6.4313   -6.2206    0.0000 C   0  0  0  0  0  0  0  0  0  0  0  0
    7.2495   -6.3263    0.0000 H   0  0  0  0  0  0  0  0  0  0  0  0
    5.9306   -6.8762    0.0000 H   0  0  0  0  0  0  0  0  0  0  0  0
    6.8438   -5.5061    0.0000 C   0  0  0  0  0  0  0  0  0  0  0  0
    6.0188   -5.5061    0.0000 H   0  0  0  0  0  0  0  0  0  0  0  0
    7.2563   -4.7916    0.0000 H   0  0  0  0  0  0  0  0  0  0  0  0
    7.6688   -5.5061    0.0000 C   0  0  0  0  0  0  0  0  0  0  0  0
    8.1053   -6.2061    0.0000 H   0  0  0  0  0  0  0  0  0  0  0  0
    8.4937   -5.4920    0.0000 H   0  0  0  0  0  0  0  0  0  0  0  0
    8.0813   -4.7916    0.0000 C   0  0  0  0  0  0  0  0  0  0  0  0
    8.3635   -4.0164    0.0000 H   0  0  0  0  0  0  0  0  0  0  0  0
    7.7991   -4.0164    0.0000 H   0  0  0  0  0  0  0  0  0  0  0  0
    8.9063   -4.7916    0.0000 N   0  0  0  0  0  0  0  0  0  0  0  0
    9.6538   -5.1406    0.0000 H   0  0  0  0  0  0  0  0  0  0  0  0
    9.6241   -4.3850    0.0000 H   0  0  0  0  0  0  0  0  0  0  0  0
    4.3688   -2.6482    0.0000 C   0  0  0  0  0  0  0  0  0  0  0  0
    3.9563   -3.3627    0.0000 H   0  0  0  0  0  0  0  0  0  0  0  0
    3.9563   -1.9337    0.0000 C   0  0  0  0  0  0  0  0  0  0  0  0
    3.1313   -1.9337    0.0000 H   0  0  0  0  0  0  0  0  0  0  0  0
  1  2  1  0  0  0  0
  2  3  1  0  0  0  0
  3  4  2  0  0  0  0
  3  5  1  0  0  0  0
  5  6  1  0  0  0  0
  3  7  1  0  0  0  0
  7  8  1  0  0  0  0
  8  9  4  0  0  0  0
  9 10  1  0  0  0  0
  9 11  4  0  0  0  0
 11 12  1  0  0  0  0
 11 13  4  0  0  0  0
 13 14  1  0  0  0  0
 14 15  1  4  0  0  0
 14 16  2  0  0  0  0
 16 17  1  0  0  0  0
 16 18  1  0  0  0  0
 18 19  2  0  0  0  0
 18 20  1  0  0  0  0
 20 21  1  0  0  0  0
 20 22  1  0  0  0  0
 22 23  1  0  0  0  0
 22 24  1  0  0  0  0
 24 25  2  0  0  0  0
 24 26  1  0  0  0  0
 26 27  1  0  0  0  0
 27 28  1  0  0  0  0
 27 29  1  0  0  0  0
 27 30  1  0  0  0  0
 30 31  1  0  0  0  0
 30 32  1  0  0  0  0
 30 33  1  0  0  0  0
 33 34  1  0  0  0  0
 33 35  1  0  0  0  0
 33 36  1  0  0  0  0
 26 36  1  0  0  0  0
 36 37  1  0  0  0  0
 36 38  1  0  0  0  0
 38 39  2  0  0  0  0
 38 40  1  0  0  0  0
 40 41  1  0  0  0  0
 40 42  1  0  0  0  0
 42 43  1  0  0  0  0
 42 44  1  0  0  0  0
 44 45  2  0  0  0  0
 44 46  1  0  0  0  0
 46 47  1  0  0  0  0
 46 48  1  0  0  0  0
 42 49  1  0  0  0  0
 49 50  1  0  0  0  0
 49 51  1  0  0  0  0
 49 52  1  0  0  0  0
 52 53  4  0  0  0  0
 53 54  1  0  0  0  0
 53 55  4  0  0  0  0
 55 56  1  0  0  0  0
 55 57  4  0  0  0  0
 57 58  1  0  0  0  0
 57 59  4  0  0  0  0
 59 60  1  0  0  0  0
 59 61  4  0  0  0  0
 52 61  4  0  0  0  0
 61 62  1  0  0  0  0
 22 63  1  0  0  0  0
 63 64  1  0  0  0  0
 63 65  1  0  0  0  0
 63 66  1  0  0  0  0
 66 67  1  0  0  0  0
 66 68  1  0  0  0  0
 66 69  1  0  0  0  0
 69 70  1  0  0  0  0
 69 71  1  0  0  0  0
 69 72  1  0  0  0  0
 72 73  1  0  0  0  0
 72 74  1  0  0  0  0
 72 75  1  0  0  0  0
 75 76  1  0  0  0  0
 75 77  1  0  0  0  0
 13 78  4  0  0  0  0
 78 79  1  0  0  0  0
 78 80  4  0  0  0  0
  8 80  4  0  0  0  0
 80 81  1  0  0  0  0
M  END
> <pActivity>
5.065501548756432

$$$$
CHEMBL3740899
  Mrv2316 04152410472D          

 81 84  0  0  0  0            999 V2000
   -4.2535   -6.3178    0.0000 N   0  0  0  0  0  0  0  0  0  0  0  0
   -3.4465   -6.1463    0.0000 C   0  0  0  0  0  0  0  0  0  0  0  0
   -2.8945   -6.7594    0.0000 C   0  0  0  0  0  0  0  0  0  0  0  0
   -2.0875   -6.5879    0.0000 N   0  0  0  0  0  0  0  0  0  0  0  0
   -1.8326   -5.8033    0.0000 C   0  0  0  0  0  0  0  0  0  0  0  0
   -1.0256   -5.6317    0.0000 C   0  0  0  0  0  0  0  0  0  0  0  0
   -0.6900   -4.8781    0.0000 N   0  0  0  0  0  0  0  0  0  0  0  0
   -1.1025   -4.1636    0.0000 C   0  0  0  0  0  0  0  0  0  0  0  0
   -0.6900   -3.4491    0.0000 C   0  0  0  0  0  0  0  0  0  0  0  0
   -1.1025   -2.7346    0.0000 N   0  0  0  0  0  0  0  0  0  0  0  0
   -0.6900   -2.0202    0.0000 C   0  0  0  0  0  0  0  0  0  0  0  0
   -1.1025   -1.3057    0.0000 C   0  0  0  0  0  0  0  0  0  0  0  0
   -0.7670   -0.5520    0.0000 N   0  0  0  0  0  0  0  0  0  0  0  0
    0.0400   -0.3805    0.0000 H   0  0  0  0  0  0  0  0  0  0  0  0
   -1.3801   -0.0000    0.0000 C   0  0  0  0  0  0  0  0  0  0  0  0
   -2.0945   -0.4125    0.0000 C   0  0  0  0  0  0  0  0  0  0  0  0
   -2.8090    0.0000    0.0000 C   0  0  0  0  0  0  0  0  0  0  0  0
   -2.8090    0.8250    0.0000 C   0  0  0  0  0  0  0  0  0  0  0  0
   -3.5235    1.2375    0.0000 O   0  0  0  0  0  0  0  0  0  0  0  0
   -3.5235    2.0625    0.0000 P   0  0  0  0  0  0  0  0  0  0  0  0
   -3.5235    2.8875    0.0000 O   0  0  0  0  0  0  0  0  0  0  0  0
   -4.3485    2.0625    0.0000 O   0  0  0  0  0  0  0  0  0  0  0  0
   -4.7610    2.7770    0.0000 H   0  0  0  0  0  0  0  0  0  0  0  0
   -2.6985    2.0625    0.0000 O   0  0  0  0  0  0  0  0  0  0  0  0
   -2.2860    1.3480    0.0000 H   0  0  0  0  0  0  0  0  0  0  0  0
   -2.0945    1.2375    0.0000 C   0  0  0  0  0  0  0  0  0  0  0  0
   -1.3801    0.8250    0.0000 C   0  0  0  0  0  0  0  0  0  0  0  0
   -0.6656    1.2375    0.0000 H   0  0  0  0  0  0  0  0  0  0  0  0
   -1.6820    1.9520    0.0000 H   0  0  0  0  0  0  0  0  0  0  0  0
   -3.5235   -0.4125    0.0000 H   0  0  0  0  0  0  0  0  0  0  0  0
   -1.9230   -1.2195    0.0000 C   0  0  0  0  0  0  0  0  0  0  0  0
   -2.4751   -1.8326    0.0000 H   0  0  0  0  0  0  0  0  0  0  0  0
    0.1350   -2.0202    0.0000 O   0  0  0  0  0  0  0  0  0  0  0  0
   -1.8170   -2.3221    0.0000 H   0  0  0  0  0  0  0  0  0  0  0  0
    0.1350   -3.4491    0.0000 C   0  0  0  0  0  0  0  0  0  0  0  0
    0.5475   -2.7346    0.0000 C   0  0  0  0  0  0  0  0  0  0  0  0
    1.3725   -2.7346    0.0000 C   0  0  0  0  0  0  0  0  0  0  0  0
    1.7850   -2.0202    0.0000 C   0  0  0  0  0  0  0  0  0  0  0  0
    2.6100   -2.0202    0.0000 N   0  0  0  0  0  0  0  0  0  0  0  0
    3.0050   -2.7444    0.0000 H   0  0  0  0  0  0  0  0  0  0  0  0
    3.4298   -1.9284    0.0000 H   0  0  0  0  0  0  0  0  0  0  0  0
    2.0671   -1.2449    0.0000 H   0  0  0  0  0  0  0  0  0  0  0  0
    1.5028   -1.2449    0.0000 H   0  0  0  0  0  0  0  0  0  0  0  0
    1.4204   -3.5583    0.0000 H   0  0  0  0  0  0  0  0  0  0  0  0
    2.0617   -3.1880    0.0000 H   0  0  0  0  0  0  0  0  0  0  0  0
   -0.2775   -2.7346    0.0000 H   0  0  0  0  0  0  0  0  0  0  0  0
    0.9600   -2.0202    0.0000 H   0  0  0  0  0  0  0  0  0  0  0  0
    0.1829   -4.2727    0.0000 H   0  0  0  0  0  0  0  0  0  0  0  0
    0.8242   -3.9025    0.0000 H   0  0  0  0  0  0  0  0  0  0  0  0
   -1.5150   -3.4491    0.0000 H   0  0  0  0  0  0  0  0  0  0  0  0
   -1.9275   -4.1636    0.0000 O   0  0  0  0  0  0  0  0  0  0  0  0
    0.1304   -4.9643    0.0000 C   0  0  0  0  0  0  0  0  0  0  0  0
    0.8873   -5.2926    0.0000 H   0  0  0  0  0  0  0  0  0  0  0  0
    0.8368   -4.5381    0.0000 H   0  0  0  0  0  0  0  0  0  0  0  0
    0.3020   -5.7713    0.0000 C   0  0  0  0  0  0  0  0  0  0  0  0
    0.4961   -6.5731    0.0000 H   0  0  0  0  0  0  0  0  0  0  0  0
    0.9833   -6.2365    0.0000 H   0  0  0  0  0  0  0  0  0  0  0  0
   -0.4125   -6.1838    0.0000 C   0  0  0  0  0  0  0  0  0  0  0  0
   -0.3873   -7.0084    0.0000 H   0  0  0  0  0  0  0  0  0  0  0  0
    0.1683   -6.7697    0.0000 H   0  0  0  0  0  0  0  0  0  0  0  0
   -1.2391   -6.4286    0.0000 H   0  0  0  0  0  0  0  0  0  0  0  0
   -2.3846   -5.1902    0.0000 O   0  0  0  0  0  0  0  0  0  0  0  0
   -1.5355   -7.2010    0.0000 H   0  0  0  0  0  0  0  0  0  0  0  0
   -3.1494   -7.5440    0.0000 C   0  0  0  0  0  0  0  0  0  0  0  0
   -3.9564   -7.7156    0.0000 C   0  0  0  0  0  0  0  0  0  0  0  0
   -4.2113   -8.5002    0.0000 C   0  0  0  0  0  0  0  0  0  0  0  0
   -3.6593   -9.1133    0.0000 H   0  0  0  0  0  0  0  0  0  0  0  0
   -5.0183   -8.6717    0.0000 C   0  0  0  0  0  0  0  0  0  0  0  0
   -5.2732   -9.4563    0.0000 H   0  0  0  0  0  0  0  0  0  0  0  0
   -5.5703   -8.0586    0.0000 C   0  0  0  0  0  0  0  0  0  0  0  0
   -6.3773   -8.2301    0.0000 H   0  0  0  0  0  0  0  0  0  0  0  0
   -5.3154   -7.2740    0.0000 C   0  0  0  0  0  0  0  0  0  0  0  0
   -5.8674   -6.6609    0.0000 H   0  0  0  0  0  0  0  0  0  0  0  0
   -4.5084   -7.1025    0.0000 C   0  0  0  0  0  0  0  0  0  0  0  0
   -3.7014   -6.9309    0.0000 H   0  0  0  0  0  0  0  0  0  0  0  0
   -2.9313   -8.3397    0.0000 H   0  0  0  0  0  0  0  0  0  0  0  0
   -2.3809   -7.8442    0.0000 H   0  0  0  0  0  0  0  0  0  0  0  0
   -2.6395   -5.9748    0.0000 H   0  0  0  0  0  0  0  0  0  0  0  0
   -3.1916   -5.3617    0.0000 O   0  0  0  0  0  0  0  0  0  0  0  0
   -4.4716   -5.5222    0.0000 H   0  0  0  0  0  0  0  0  0  0  0  0
   -5.0220   -6.0177    0.0000 H   0  0  0  0  0  0  0  0  0  0  0  0
  1  2  1  0  0  0  0
  2  3  1  0  0  0  0
  3  4  1  0  0  0  0
  4  5  1  0  0  0  0
  5  6  1  0  0  0  0
  6  7  1  0  0  0  0
  7  8  1  0  0  0  0
  8  9  1  0  0  0  0
  9 10  1  0  0  0  0
 10 11  1  0  0  0  0
 11 12  1  0  0  0  0
 12 13  4  0  0  0  0
 13 14  1  0  0  0  0
 13 15  4  0  0  0  0
 15 16  4  0  0  0  0
 16 17  4  0  0  0  0
 17 18  4  0  0  0  0
 18 19  1  0  0  0  0
 19 20  1  0  0  0  0
 20 21  2  0  0  0  0
 20 22  1  0  0  0  0
 22 23  1  0  0  0  0
 20 24  1  0  0  0  0
 24 25  1  0  0  0  0
 18 26  4  0  0  0  0
 26 27  4  0  0  0  0
 15 27  4  0  0  0  0
 27 28  1  0  0  0  0
 26 29  1  0  0  0  0
 17 30  1  0  0  0  0
 16 31  4  0  0  0  0
 12 31  4  0  0  0  0
 31 32  1  0  0  0  0
 11 33  2  0  0  0  0
 10 34  1  0  0  0  0
  9 35  1  0  0  0  0
 35 36  1  0  0  0  0
 36 37  1  0  0  0  0
 37 38  1  0  0  0  0
 38 39  1  0  0  0  0
 39 40  1  0  0  0  0
 39 41  1  0  0  0  0
 38 42  1  0  0  0  0
 38 43  1  0  0  0  0
 37 44  1  0  0  0  0
 37 45  1  0  0  0  0
 36 46  1  0  0  0  0
 36 47  1  0  0  0  0
 35 48  1  0  0  0  0
 35 49  1  0  0  0  0
  9 50  1  0  0  0  0
  8 51  2  0  0  0  0
  7 52  1  0  0  0  0
 52 53  1  0  0  0  0
 52 54  1  0  0  0  0
 52 55  1  0  0  0  0
 55 56  1  0  0  0  0
 55 57  1  0  0  0  0
 55 58  1  0  0  0  0
  6 58  1  0  0  0  0
 58 59  1  0  0  0  0
 58 60  1  0  0  0  0
  6 61  1  0  0  0  0
  5 62  2  0  0  0  0
  4 63  1  0  0  0  0
  3 64  1  0  0  0  0
 64 65  1  0  0  0  0
 65 66  4  0  0  0  0
 66 67  1  0  0  0  0
 66 68  4  0  0  0  0
 68 69  1  0  0  0  0
 68 70  4  0  0  0  0
 70 71  1  0  0  0  0
 70 72  4  0  0  0  0
 72 73  1  0  0  0  0
 72 74  4  0  0  0  0
 65 74  4  0  0  0  0
 74 75  1  0  0  0  0
 64 76  1  0  0  0  0
 64 77  1  0  0  0  0
  3 78  1  0  0  0  0
  2 79  2  0  0  0  0
  1 80  1  0  0  0  0
  1 81  1  0  0  0  0
M  END
> <pActivity>
5.431798275933004

$$$$
CHEMBL3740751
  Mrv2316 04152410472D          

 80 83  0  0  0  0            999 V2000
    0.0000    8.1654    0.0000 H   0  0  0  0  0  0  0  0  0  0  0  0
   -0.7145    7.7529    0.0000 O   0  0  0  0  0  0  0  0  0  0  0  0
   -0.7145    6.9279    0.0000 P   0  0  0  0  0  0  0  0  0  0  0  0
   -1.5395    6.9279    0.0000 O   0  0  0  0  0  0  0  0  0  0  0  0
    0.1105    6.9279    0.0000 O   0  0  0  0  0  0  0  0  0  0  0  0
    0.5230    6.2134    0.0000 H   0  0  0  0  0  0  0  0  0  0  0  0
   -0.7145    6.1029    0.0000 O   0  0  0  0  0  0  0  0  0  0  0  0
    0.0000    5.6904    0.0000 C   0  0  0  0  0  0  0  0  0  0  0  0
    0.7145    6.1029    0.0000 C   0  0  0  0  0  0  0  0  0  0  0  0
    1.1270    6.8173    0.0000 H   0  0  0  0  0  0  0  0  0  0  0  0
    1.4289    5.6904    0.0000 C   0  0  0  0  0  0  0  0  0  0  0  0
    2.1434    6.1029    0.0000 H   0  0  0  0  0  0  0  0  0  0  0  0
    1.4289    4.8654    0.0000 C   0  0  0  0  0  0  0  0  0  0  0  0
    2.0420    4.3133    0.0000 O   0  0  0  0  0  0  0  0  0  0  0  0
    1.7065    3.5596    0.0000 C   0  0  0  0  0  0  0  0  0  0  0  0
    2.1190    2.8452    0.0000 C   0  0  0  0  0  0  0  0  0  0  0  0
    2.9440    2.8452    0.0000 O   0  0  0  0  0  0  0  0  0  0  0  0
    1.7065    2.1307    0.0000 N   0  0  0  0  0  0  0  0  0  0  0  0
    0.8815    2.1307    0.0000 H   0  0  0  0  0  0  0  0  0  0  0  0
    2.1190    1.4162    0.0000 C   0  0  0  0  0  0  0  0  0  0  0  0
    1.2940    1.4162    0.0000 H   0  0  0  0  0  0  0  0  0  0  0  0
    1.7065    0.7018    0.0000 C   0  0  0  0  0  0  0  0  0  0  0  0
    0.8815    0.7018    0.0000 O   0  0  0  0  0  0  0  0  0  0  0  0
    2.1190   -0.0127    0.0000 N   0  0  0  0  0  0  0  0  0  0  0  0
    2.9395   -0.0989    0.0000 C   0  0  0  0  0  0  0  0  0  0  0  0
    3.7147    0.1832    0.0000 H   0  0  0  0  0  0  0  0  0  0  0  0
    3.1390    0.7016    0.0000 H   0  0  0  0  0  0  0  0  0  0  0  0
    3.1110   -0.9059    0.0000 C   0  0  0  0  0  0  0  0  0  0  0  0
    3.6189   -1.5560    0.0000 H   0  0  0  0  0  0  0  0  0  0  0  0
    3.9340   -0.8484    0.0000 H   0  0  0  0  0  0  0  0  0  0  0  0
    2.3965   -1.3184    0.0000 C   0  0  0  0  0  0  0  0  0  0  0  0
    1.9352   -2.0024    0.0000 H   0  0  0  0  0  0  0  0  0  0  0  0
    2.7056   -2.0833    0.0000 H   0  0  0  0  0  0  0  0  0  0  0  0
    1.7834   -0.7664    0.0000 C   0  0  0  0  0  0  0  0  0  0  0  0
    1.2642   -0.1252    0.0000 H   0  0  0  0  0  0  0  0  0  0  0  0
    0.9764   -0.9379    0.0000 C   0  0  0  0  0  0  0  0  0  0  0  0
    0.4244   -0.3248    0.0000 O   0  0  0  0  0  0  0  0  0  0  0  0
    0.7215   -1.7225    0.0000 N   0  0  0  0  0  0  0  0  0  0  0  0
    1.2735   -2.3356    0.0000 H   0  0  0  0  0  0  0  0  0  0  0  0
   -0.0855   -1.8941    0.0000 C   0  0  0  0  0  0  0  0  0  0  0  0
    0.1695   -1.1094    0.0000 H   0  0  0  0  0  0  0  0  0  0  0  0
   -0.6375   -1.2810    0.0000 C   0  0  0  0  0  0  0  0  0  0  0  0
   -1.4445   -1.4525    0.0000 O   0  0  0  0  0  0  0  0  0  0  0  0
   -0.3826   -0.4963    0.0000 N   0  0  0  0  0  0  0  0  0  0  0  0
   -0.6007    0.2993    0.0000 H   0  0  0  0  0  0  0  0  0  0  0  0
   -1.1510   -0.1962    0.0000 H   0  0  0  0  0  0  0  0  0  0  0  0
   -0.3404   -2.6787    0.0000 C   0  0  0  0  0  0  0  0  0  0  0  0
   -0.1222   -3.4743    0.0000 H   0  0  0  0  0  0  0  0  0  0  0  0
    0.4281   -2.9788    0.0000 H   0  0  0  0  0  0  0  0  0  0  0  0
   -1.1474   -2.8502    0.0000 C   0  0  0  0  0  0  0  0  0  0  0  0
   -1.4023   -3.6348    0.0000 C   0  0  0  0  0  0  0  0  0  0  0  0
   -0.8503   -4.2479    0.0000 H   0  0  0  0  0  0  0  0  0  0  0  0
   -2.2093   -3.8064    0.0000 C   0  0  0  0  0  0  0  0  0  0  0  0
   -2.4642   -4.5910    0.0000 H   0  0  0  0  0  0  0  0  0  0  0  0
   -2.7613   -3.1933    0.0000 C   0  0  0  0  0  0  0  0  0  0  0  0
   -3.5683   -3.3648    0.0000 H   0  0  0  0  0  0  0  0  0  0  0  0
   -2.5064   -2.4086    0.0000 C   0  0  0  0  0  0  0  0  0  0  0  0
   -3.0584   -1.7955    0.0000 H   0  0  0  0  0  0  0  0  0  0  0  0
   -1.6994   -2.2371    0.0000 C   0  0  0  0  0  0  0  0  0  0  0  0
   -0.8924   -2.0656    0.0000 H   0  0  0  0  0  0  0  0  0  0  0  0
    2.9440    1.4162    0.0000 C   0  0  0  0  0  0  0  0  0  0  0  0
    3.7622    1.3105    0.0000 H   0  0  0  0  0  0  0  0  0  0  0  0
    2.4433    0.7606    0.0000 H   0  0  0  0  0  0  0  0  0  0  0  0
    3.3565    2.1307    0.0000 C   0  0  0  0  0  0  0  0  0  0  0  0
    2.5315    2.1307    0.0000 H   0  0  0  0  0  0  0  0  0  0  0  0
    3.7690    2.8452    0.0000 H   0  0  0  0  0  0  0  0  0  0  0  0
    4.1815    2.1307    0.0000 C   0  0  0  0  0  0  0  0  0  0  0  0
    4.6180    1.4307    0.0000 H   0  0  0  0  0  0  0  0  0  0  0  0
    5.0064    2.1447    0.0000 H   0  0  0  0  0  0  0  0  0  0  0  0
    4.5940    2.8452    0.0000 C   0  0  0  0  0  0  0  0  0  0  0  0
    4.8761    3.6204    0.0000 H   0  0  0  0  0  0  0  0  0  0  0  0
    4.3118    3.6204    0.0000 H   0  0  0  0  0  0  0  0  0  0  0  0
    5.4190    2.8452    0.0000 N   0  0  0  0  0  0  0  0  0  0  0  0
    6.1665    2.4961    0.0000 H   0  0  0  0  0  0  0  0  0  0  0  0
    6.1368    3.2518    0.0000 H   0  0  0  0  0  0  0  0  0  0  0  0
    0.8860    3.6459    0.0000 C   0  0  0  0  0  0  0  0  0  0  0  0
    0.3340    3.0328    0.0000 H   0  0  0  0  0  0  0  0  0  0  0  0
    0.7145    4.4529    0.0000 C   0  0  0  0  0  0  0  0  0  0  0  0
    0.0000    4.8654    0.0000 C   0  0  0  0  0  0  0  0  0  0  0  0
   -0.7145    4.4529    0.0000 H   0  0  0  0  0  0  0  0  0  0  0  0
  1  2  1  0  0  0  0
  2  3  1  0  0  0  0
  3  4  2  0  0  0  0
  3  5  1  0  0  0  0
  5  6  1  0  0  0  0
  3  7  1  0  0  0  0
  7  8  1  0  0  0  0
  8  9  4  0  0  0  0
  9 10  1  0  0  0  0
  9 11  4  0  0  0  0
 11 12  1  0  0  0  0
 11 13  4  0  0  0  0
 13 14  4  0  0  0  0
 14 15  4  0  0  0  0
 15 16  1  0  0  0  0
 16 17  2  0  0  0  0
 16 18  1  0  0  0  0
 18 19  1  0  0  0  0
 18 20  1  0  0  0  0
 20 21  1  0  0  0  0
 20 22  1  0  0  0  0
 22 23  2  0  0  0  0
 22 24  1  0  0  0  0
 24 25  1  0  0  0  0
 25 26  1  0  0  0  0
 25 27  1  0  0  0  0
 25 28  1  0  0  0  0
 28 29  1  0  0  0  0
 28 30  1  0  0  0  0
 28 31  1  0  0  0  0
 31 32  1  0  0  0  0
 31 33  1  0  0  0  0
 31 34  1  0  0  0  0
 24 34  1  0  0  0  0
 34 35  1  0  0  0  0
 34 36  1  0  0  0  0
 36 37  2  0  0  0  0
 36 38  1  0  0  0  0
 38 39  1  0  0  0  0
 38 40  1  0  0  0  0
 40 41  1  0  0  0  0
 40 42  1  0  0  0  0
 42 43  2  0  0  0  0
 42 44  1  0  0  0  0
 44 45  1  0  0  0  0
 44 46  1  0  0  0  0
 40 47  1  0  0  0  0
 47 48  1  0  0  0  0
 47 49  1  0  0  0  0
 47 50  1  0  0  0  0
 50 51  4  0  0  0  0
 51 52  1  0  0  0  0
 51 53  4  0  0  0  0
 53 54  1  0  0  0  0
 53 55  4  0  0  0  0
 55 56  1  0  0  0  0
 55 57  4  0  0  0  0
 57 58  1  0  0  0  0
 57 59  4  0  0  0  0
 50 59  4  0  0  0  0
 59 60  1  0  0  0  0
 20 61  1  0  0  0  0
 61 62  1  0  0  0  0
 61 63  1  0  0  0  0
 61 64  1  0  0  0  0
 64 65  1  0  0  0  0
 64 66  1  0  0  0  0
 64 67  1  0  0  0  0
 67 68  1  0  0  0  0
 67 69  1  0  0  0  0
 67 70  1  0  0  0  0
 70 71  1  0  0  0  0
 70 72  1  0  0  0  0
 70 73  1  0  0  0  0
 73 74  1  0  0  0  0
 73 75  1  0  0  0  0
 15 76  4  0  0  0  0
 76 77  1  0  0  0  0
 76 78  4  0  0  0  0
 13 78  4  0  0  0  0
 78 79  4  0  0  0  0
  8 79  4  0  0  0  0
 79 80  1  0  0  0  0
M  END
> <pActivity>
4.047691990337874

$$$$
CHEMBL3742125
  Mrv2316 04152410472D          

 79 83  0  0  0  0            999 V2000
   -2.3890   -2.5394    0.0000 C   0  0  0  0  0  0  0  0  0  0  0  0
   -3.1034   -2.1269    0.0000 C   0  0  0  0  0  0  0  0  0  0  0  0
   -2.6909   -1.4124    0.0000 C   0  0  0  0  0  0  0  0  0  0  0  0
   -3.1034   -0.6979    0.0000 C   0  0  0  0  0  0  0  0  0  0  0  0
   -3.9284   -0.6979    0.0000 N   0  0  0  0  0  0  0  0  0  0  0  0
   -4.4134   -0.0305    0.0000 C   0  0  0  0  0  0  0  0  0  0  0  0
   -4.1584    0.7541    0.0000 C   0  0  0  0  0  0  0  0  0  0  0  0
   -4.7104    1.3672    0.0000 N   0  0  0  0  0  0  0  0  0  0  0  0
   -4.4555    2.1518    0.0000 C   0  0  0  0  0  0  0  0  0  0  0  0
   -5.0075    2.7649    0.0000 C   0  0  0  0  0  0  0  0  0  0  0  0
   -5.8145    2.5934    0.0000 H   0  0  0  0  0  0  0  0  0  0  0  0
   -4.7526    3.5496    0.0000 C   0  0  0  0  0  0  0  0  0  0  0  0
   -5.3046    4.1626    0.0000 H   0  0  0  0  0  0  0  0  0  0  0  0
   -3.9456    3.7211    0.0000 C   0  0  0  0  0  0  0  0  0  0  0  0
   -3.6907    4.5057    0.0000 I   0  0  0  0  0  0  0  0  0  0  0  0
   -3.3936    3.1080    0.0000 C   0  0  0  0  0  0  0  0  0  0  0  0
   -2.5866    3.2795    0.0000 H   0  0  0  0  0  0  0  0  0  0  0  0
   -3.6485    2.3234    0.0000 C   0  0  0  0  0  0  0  0  0  0  0  0
   -3.0965    1.7103    0.0000 H   0  0  0  0  0  0  0  0  0  0  0  0
   -5.5174    1.1957    0.0000 C   0  0  0  0  0  0  0  0  0  0  0  0
   -5.7724    0.4111    0.0000 C   0  0  0  0  0  0  0  0  0  0  0  0
   -4.9619    0.5650    0.0000 H   0  0  0  0  0  0  0  0  0  0  0  0
   -6.5793    0.2395    0.0000 C   0  0  0  0  0  0  0  0  0  0  0  0
   -6.8343   -0.5451    0.0000 H   0  0  0  0  0  0  0  0  0  0  0  0
   -7.1314    0.8526    0.0000 C   0  0  0  0  0  0  0  0  0  0  0  0
   -7.9383    0.6811    0.0000 H   0  0  0  0  0  0  0  0  0  0  0  0
   -6.8764    1.6373    0.0000 C   0  0  0  0  0  0  0  0  0  0  0  0
   -7.4285    2.2503    0.0000 H   0  0  0  0  0  0  0  0  0  0  0  0
   -6.0695    1.8088    0.0000 C   0  0  0  0  0  0  0  0  0  0  0  0
   -5.2625    1.9803    0.0000 H   0  0  0  0  0  0  0  0  0  0  0  0
   -3.3514    0.9256    0.0000 O   0  0  0  0  0  0  0  0  0  0  0  0
   -3.5985    0.0986    0.0000 H   0  0  0  0  0  0  0  0  0  0  0  0
   -5.1980   -0.2854    0.0000 C   0  0  0  0  0  0  0  0  0  0  0  0
   -6.0213   -0.2328    0.0000 H   0  0  0  0  0  0  0  0  0  0  0  0
   -5.7997   -0.8499    0.0000 H   0  0  0  0  0  0  0  0  0  0  0  0
   -5.1980   -1.1104    0.0000 C   0  0  0  0  0  0  0  0  0  0  0  0
   -5.7426   -1.7301    0.0000 H   0  0  0  0  0  0  0  0  0  0  0  0
   -5.1995   -1.9354    0.0000 H   0  0  0  0  0  0  0  0  0  0  0  0
   -4.4134   -1.3654    0.0000 C   0  0  0  0  0  0  0  0  0  0  0  0
   -5.0646   -1.8719    0.0000 H   0  0  0  0  0  0  0  0  0  0  0  0
   -4.3594   -2.1886    0.0000 H   0  0  0  0  0  0  0  0  0  0  0  0
   -2.6909    0.0165    0.0000 O   0  0  0  0  0  0  0  0  0  0  0  0
   -1.8659   -1.4124    0.0000 N   0  0  0  0  0  0  0  0  0  0  0  0
   -1.4534   -0.6979    0.0000 C   0  0  0  0  0  0  0  0  0  0  0  0
   -0.6284   -0.6979    0.0000 C   0  0  0  0  0  0  0  0  0  0  0  0
   -0.1435   -1.3654    0.0000 N   0  0  0  0  0  0  0  0  0  0  0  0
   -0.3984   -2.1500    0.0000 H   0  0  0  0  0  0  0  0  0  0  0  0
    0.6411   -1.1104    0.0000 C   0  0  0  0  0  0  0  0  0  0  0  0
    0.6411   -0.2854    0.0000 C   0  0  0  0  0  0  0  0  0  0  0  0
    1.3556    0.1271    0.0000 C   0  0  0  0  0  0  0  0  0  0  0  0
    2.0701   -0.2854    0.0000 C   0  0  0  0  0  0  0  0  0  0  0  0
    2.7845    0.1271    0.0000 O   0  0  0  0  0  0  0  0  0  0  0  0
    3.4990   -0.2854    0.0000 P   0  0  0  0  0  0  0  0  0  0  0  0
    4.2135   -0.6979    0.0000 O   0  0  0  0  0  0  0  0  0  0  0  0
    3.0865   -0.9999    0.0000 O   0  0  0  0  0  0  0  0  0  0  0  0
    2.2615   -0.9999    0.0000 H   0  0  0  0  0  0  0  0  0  0  0  0
    3.9115    0.4290    0.0000 O   0  0  0  0  0  0  0  0  0  0  0  0
    4.7365    0.4290    0.0000 H   0  0  0  0  0  0  0  0  0  0  0  0
    2.0701   -1.1104    0.0000 C   0  0  0  0  0  0  0  0  0  0  0  0
    1.3556   -1.5229    0.0000 C   0  0  0  0  0  0  0  0  0  0  0  0
    1.3556   -2.3479    0.0000 H   0  0  0  0  0  0  0  0  0  0  0  0
    2.4826   -1.8249    0.0000 H   0  0  0  0  0  0  0  0  0  0  0  0
    1.3556    0.9521    0.0000 H   0  0  0  0  0  0  0  0  0  0  0  0
   -0.1435   -0.0305    0.0000 C   0  0  0  0  0  0  0  0  0  0  0  0
   -0.3984    0.7541    0.0000 H   0  0  0  0  0  0  0  0  0  0  0  0
   -1.8659    0.0165    0.0000 O   0  0  0  0  0  0  0  0  0  0  0  0
   -1.1037   -1.7281    0.0000 H   0  0  0  0  0  0  0  0  0  0  0  0
   -3.5159   -1.4124    0.0000 H   0  0  0  0  0  0  0  0  0  0  0  0
   -3.8179   -1.7144    0.0000 C   0  0  0  0  0  0  0  0  0  0  0  0
   -3.6729   -0.9022    0.0000 H   0  0  0  0  0  0  0  0  0  0  0  0
   -4.1633   -0.9652    0.0000 H   0  0  0  0  0  0  0  0  0  0  0  0
   -3.7373   -2.5354    0.0000 H   0  0  0  0  0  0  0  0  0  0  0  0
   -3.5159   -2.8414    0.0000 C   0  0  0  0  0  0  0  0  0  0  0  0
   -4.3397   -2.7970    0.0000 H   0  0  0  0  0  0  0  0  0  0  0  0
   -4.0685   -3.4539    0.0000 H   0  0  0  0  0  0  0  0  0  0  0  0
   -3.3873   -3.6563    0.0000 H   0  0  0  0  0  0  0  0  0  0  0  0
   -2.8015   -3.2539    0.0000 H   0  0  0  0  0  0  0  0  0  0  0  0
   -1.6745   -2.9519    0.0000 H   0  0  0  0  0  0  0  0  0  0  0  0
   -1.9765   -1.8249    0.0000 H   0  0  0  0  0  0  0  0  0  0  0  0
  1  2  1  0  0  0  0
  2  3  1  0  0  0  0
  3  4  1  0  0  0  0
  4  5  1  0  0  0  0
  5  6  1  0  0  0  0
  6  7  1  0  0  0  0
  7  8  1  0  0  0  0
  8  9  1  0  0  0  0
  9 10  4  0  0  0  0
 10 11  1  0  0  0  0
 10 12  4  0  0  0  0
 12 13  1  0  0  0  0
 12 14  4  0  0  0  0
 14 15  1  0  0  0  0
 14 16  4  0  0  0  0
 16 17  1  0  0  0  0
 16 18  4  0  0  0  0
  9 18  4  0  0  0  0
 18 19  1  0  0  0  0
  8 20  1  0  0  0  0
 20 21  4  0  0  0  0
 21 22  1  0  0  0  0
 21 23  4  0  0  0  0
 23 24  1  0  0  0  0
 23 25  4  0  0  0  0
 25 26  1  0  0  0  0
 25 27  4  0  0  0  0
 27 28  1  0  0  0  0
 27 29  4  0  0  0  0
 20 29  4  0  0  0  0
 29 30  1  0  0  0  0
  7 31  2  0  0  0  0
  6 32  1  0  0  0  0
  6 33  1  0  0  0  0
 33 34  1  0  0  0  0
 33 35  1  0  0  0  0
 33 36  1  0  0  0  0
 36 37  1  0  0  0  0
 36 38  1  0  0  0  0
 36 39  1  0  0  0  0
  5 39  1  0  0  0  0
 39 40  1  0  0  0  0
 39 41  1  0  0  0  0
  4 42  2  0  0  0  0
  3 43  1  0  0  0  0
 43 44  1  0  0  0  0
 44 45  1  0  0  0  0
 45 46  4  0  0  0  0
 46 47  1  0  0  0  0
 46 48  4  0  0  0  0
 48 49  4  0  0  0  0
 49 50  4  0  0  0  0
 50 51  4  0  0  0  0
 51 52  1  0  0  0  0
 52 53  1  0  0  0  0
 53 54  2  0  0  0  0
 53 55  1  0  0  0  0
 55 56  1  0  0  0  0
 53 57  1  0  0  0  0
 57 58  1  0  0  0  0
 51 59  4  0  0  0  0
 59 60  4  0  0  0  0
 48 60  4  0  0  0  0
 60 61  1  0  0  0  0
 59 62  1  0  0  0  0
 50 63  1  0  0  0  0
 49 64  4  0  0  0  0
 45 64  4  0  0  0  0
 64 65  1  0  0  0  0
 44 66  2  0  0  0  0
 43 67  1  0  0  0  0
  3 68  1  0  0  0  0
  2 69  1  0  0  0  0
 69 70  1  0  0  0  0
 69 71  1  0  0  0  0
 69 72  1  0  0  0  0
  2 73  1  0  0  0  0
 73 74  1  0  0  0  0
 73 75  1  0  0  0  0
 73 76  1  0  0  0  0
  1 77  1  0  0  0  0
  1 78  1  0  0  0  0
  1 79  1  0  0  0  0
M  END
> <pActivity>
6.853871964321761

$$$$
CHEMBL3741162
  Mrv2316 04152410472D          

 79 82  0  0  0  0            999 V2000
    7.8045    1.3276    0.0000 H   0  0  0  0  0  0  0  0  0  0  0  0
    7.0199    1.0727    0.0000 O   0  0  0  0  0  0  0  0  0  0  0  0
    6.8484    0.2657    0.0000 P   0  0  0  0  0  0  0  0  0  0  0  0
    6.0414    0.4372    0.0000 O   0  0  0  0  0  0  0  0  0  0  0  0
    7.6553    0.0942    0.0000 O   0  0  0  0  0  0  0  0  0  0  0  0
    7.9103   -0.6904    0.0000 H   0  0  0  0  0  0  0  0  0  0  0  0
    6.6768   -0.5413    0.0000 O   0  0  0  0  0  0  0  0  0  0  0  0
    5.8922   -0.7962    0.0000 C   0  0  0  0  0  0  0  0  0  0  0  0
    5.7207   -1.6032    0.0000 C   0  0  0  0  0  0  0  0  0  0  0  0
    6.3338   -2.1552    0.0000 H   0  0  0  0  0  0  0  0  0  0  0  0
    4.9361   -1.8581    0.0000 C   0  0  0  0  0  0  0  0  0  0  0  0
    4.7645   -2.6651    0.0000 H   0  0  0  0  0  0  0  0  0  0  0  0
    4.3230   -1.3061    0.0000 C   0  0  0  0  0  0  0  0  0  0  0  0
    3.5384   -1.5610    0.0000 C   0  0  0  0  0  0  0  0  0  0  0  0
    3.3668   -2.3680    0.0000 H   0  0  0  0  0  0  0  0  0  0  0  0
    2.9253   -1.0090    0.0000 C   0  0  0  0  0  0  0  0  0  0  0  0
    3.0968   -0.2020    0.0000 H   0  0  0  0  0  0  0  0  0  0  0  0
    2.1406   -1.2639    0.0000 C   0  0  0  0  0  0  0  0  0  0  0  0
    1.9691   -2.0709    0.0000 O   0  0  0  0  0  0  0  0  0  0  0  0
    1.5275   -0.7119    0.0000 N   0  0  0  0  0  0  0  0  0  0  0  0
    1.6991    0.0951    0.0000 H   0  0  0  0  0  0  0  0  0  0  0  0
    0.7429   -0.9668    0.0000 C   0  0  0  0  0  0  0  0  0  0  0  0
    0.9144   -0.1599    0.0000 H   0  0  0  0  0  0  0  0  0  0  0  0
    0.1298   -0.4148    0.0000 C   0  0  0  0  0  0  0  0  0  0  0  0
    0.3014    0.3922    0.0000 O   0  0  0  0  0  0  0  0  0  0  0  0
   -0.6548   -0.6697    0.0000 N   0  0  0  0  0  0  0  0  0  0  0  0
   -0.9097   -1.4544    0.0000 C   0  0  0  0  0  0  0  0  0  0  0  0
   -1.3726   -2.1373    0.0000 H   0  0  0  0  0  0  0  0  0  0  0  0
   -0.6040   -2.2206    0.0000 H   0  0  0  0  0  0  0  0  0  0  0  0
   -1.7347   -1.4544    0.0000 C   0  0  0  0  0  0  0  0  0  0  0  0
   -2.5593   -1.4812    0.0000 H   0  0  0  0  0  0  0  0  0  0  0  0
   -2.3275   -2.0282    0.0000 H   0  0  0  0  0  0  0  0  0  0  0  0
   -1.9897   -0.6697    0.0000 C   0  0  0  0  0  0  0  0  0  0  0  0
   -2.6419   -1.1749    0.0000 H   0  0  0  0  0  0  0  0  0  0  0  0
   -2.0149    0.1549    0.0000 H   0  0  0  0  0  0  0  0  0  0  0  0
   -1.3222   -0.1848    0.0000 C   0  0  0  0  0  0  0  0  0  0  0  0
   -0.5872    0.1897    0.0000 H   0  0  0  0  0  0  0  0  0  0  0  0
   -1.3222    0.6402    0.0000 C   0  0  0  0  0  0  0  0  0  0  0  0
   -0.6078    1.0527    0.0000 O   0  0  0  0  0  0  0  0  0  0  0  0
   -2.0367    1.0527    0.0000 N   0  0  0  0  0  0  0  0  0  0  0  0
   -2.0367    1.8777    0.0000 C   0  0  0  0  0  0  0  0  0  0  0  0
   -2.7512    2.2902    0.0000 C   0  0  0  0  0  0  0  0  0  0  0  0
   -3.4656    1.8777    0.0000 H   0  0  0  0  0  0  0  0  0  0  0  0
   -2.7512    3.1152    0.0000 C   0  0  0  0  0  0  0  0  0  0  0  0
   -3.4656    3.5277    0.0000 H   0  0  0  0  0  0  0  0  0  0  0  0
   -2.0367    3.5277    0.0000 C   0  0  0  0  0  0  0  0  0  0  0  0
   -2.0367    4.3527    0.0000 H   0  0  0  0  0  0  0  0  0  0  0  0
   -1.3222    3.1152    0.0000 C   0  0  0  0  0  0  0  0  0  0  0  0
   -0.6078    3.5277    0.0000 H   0  0  0  0  0  0  0  0  0  0  0  0
   -1.3222    2.2902    0.0000 C   0  0  0  0  0  0  0  0  0  0  0  0
   -0.6078    1.8777    0.0000 H   0  0  0  0  0  0  0  0  0  0  0  0
   -2.7512    0.6402    0.0000 C   0  0  0  0  0  0  0  0  0  0  0  0
   -2.7512   -0.1848    0.0000 C   0  0  0  0  0  0  0  0  0  0  0  0
   -3.4656    0.2277    0.0000 H   0  0  0  0  0  0  0  0  0  0  0  0
   -3.4656   -0.5973    0.0000 C   0  0  0  0  0  0  0  0  0  0  0  0
   -3.4656   -1.4223    0.0000 H   0  0  0  0  0  0  0  0  0  0  0  0
   -4.1801   -0.1848    0.0000 C   0  0  0  0  0  0  0  0  0  0  0  0
   -4.8946   -0.5973    0.0000 I   0  0  0  0  0  0  0  0  0  0  0  0
   -4.1801    0.6402    0.0000 C   0  0  0  0  0  0  0  0  0  0  0  0
   -4.8946    1.0527    0.0000 H   0  0  0  0  0  0  0  0  0  0  0  0
   -3.4656    1.0527    0.0000 C   0  0  0  0  0  0  0  0  0  0  0  0
   -2.7512    1.4652    0.0000 H   0  0  0  0  0  0  0  0  0  0  0  0
    0.5714   -1.7738    0.0000 C   0  0  0  0  0  0  0  0  0  0  0  0
   -0.2356   -1.6023    0.0000 C   0  0  0  0  0  0  0  0  0  0  0  0
    0.3178   -0.9904    0.0000 H   0  0  0  0  0  0  0  0  0  0  0  0
   -0.4871   -0.8166    0.0000 H   0  0  0  0  0  0  0  0  0  0  0  0
    0.0948   -2.3582    0.0000 H   0  0  0  0  0  0  0  0  0  0  0  0
    1.3784   -1.9453    0.0000 C   0  0  0  0  0  0  0  0  0  0  0  0
    1.8155   -1.2457    0.0000 H   0  0  0  0  0  0  0  0  0  0  0  0
    1.2635   -1.1284    0.0000 H   0  0  0  0  0  0  0  0  0  0  0  0
    1.2068   -2.7523    0.0000 H   0  0  0  0  0  0  0  0  0  0  0  0
    0.3999   -2.5808    0.0000 C   0  0  0  0  0  0  0  0  0  0  0  0
   -0.3973   -2.7932    0.0000 H   0  0  0  0  0  0  0  0  0  0  0  0
    0.0636   -3.3341    0.0000 H   0  0  0  0  0  0  0  0  0  0  0  0
    0.7741   -3.3160    0.0000 H   0  0  0  0  0  0  0  0  0  0  0  0
    4.4945   -0.4991    0.0000 C   0  0  0  0  0  0  0  0  0  0  0  0
    3.8814    0.0529    0.0000 H   0  0  0  0  0  0  0  0  0  0  0  0
    5.2791   -0.2442    0.0000 C   0  0  0  0  0  0  0  0  0  0  0  0
    5.4506    0.5628    0.0000 H   0  0  0  0  0  0  0  0  0  0  0  0
  1  2  1  0  0  0  0
  2  3  1  0  0  0  0
  3  4  2  0  0  0  0
  3  5  1  0  0  0  0
  5  6  1  0  0  0  0
  3  7  1  0  0  0  0
  7  8  1  0  0  0  0
  8  9  4  0  0  0  0
  9 10  1  0  0  0  0
  9 11  4  0  0  0  0
 11 12  1  0  0  0  0
 11 13  4  0  0  0  0
 13 14  1  0  0  0  0
 14 15  1  4  0  0  0
 14 16  2  0  0  0  0
 16 17  1  0  0  0  0
 16 18  1  0  0  0  0
 18 19  2  0  0  0  0
 18 20  1  0  0  0  0
 20 21  1  0  0  0  0
 20 22  1  0  0  0  0
 22 23  1  0  0  0  0
 22 24  1  0  0  0  0
 24 25  2  0  0  0  0
 24 26  1  0  0  0  0
 26 27  1  0  0  0  0
 27 28  1  0  0  0  0
 27 29  1  0  0  0  0
 27 30  1  0  0  0  0
 30 31  1  0  0  0  0
 30 32  1  0  0  0  0
 30 33  1  0  0  0  0
 33 34  1  0  0  0  0
 33 35  1  0  0  0  0
 33 36  1  0  0  0  0
 26 36  1  0  0  0  0
 36 37  1  0  0  0  0
 36 38  1  0  0  0  0
 38 39  2  0  0  0  0
 38 40  1  0  0  0  0
 40 41  1  0  0  0  0
 41 42  4  0  0  0  0
 42 43  1  0  0  0  0
 42 44  4  0  0  0  0
 44 45  1  0  0  0  0
 44 46  4  0  0  0  0
 46 47  1  0  0  0  0
 46 48  4  0  0  0  0
 48 49  1  0  0  0  0
 48 50  4  0  0  0  0
 41 50  4  0  0  0  0
 50 51  1  0  0  0  0
 40 52  1  0  0  0  0
 52 53  4  0  0  0  0
 53 54  1  0  0  0  0
 53 55  4  0  0  0  0
 55 56  1  0  0  0  0
 55 57  4  0  0  0  0
 57 58  1  0  0  0  0
 57 59  4  0  0  0  0
 59 60  1  0  0  0  0
 59 61  4  0  0  0  0
 52 61  4  0  0  0  0
 61 62  1  0  0  0  0
 22 63  1  0  0  0  0
 63 64  1  0  0  0  0
 64 65  1  0  0  0  0
 64 66  1  0  0  0  0
 64 67  1  0  0  0  0
 63 68  1  0  0  0  0
 68 69  1  0  0  0  0
 68 70  1  0  0  0  0
 68 71  1  0  0  0  0
 63 72  1  0  0  0  0
 72 73  1  0  0  0  0
 72 74  1  0  0  0  0
 72 75  1  0  0  0  0
 13 76  4  0  0  0  0
 76 77  1  0  0  0  0
 76 78  4  0  0  0  0
  8 78  4  0  0  0  0
 78 79  1  0  0  0  0
M  END
> <pActivity>
7.356547323513812

$$$$
CHEMBL3740709
  Mrv2316 04152410472D          

 79 82  0  0  0  0            999 V2000
   10.5557   -0.9626    0.0000 H   0  0  0  0  0  0  0  0  0  0  0  0
    9.7711   -1.2175    0.0000 O   0  0  0  0  0  0  0  0  0  0  0  0
    9.5995   -2.0245    0.0000 P   0  0  0  0  0  0  0  0  0  0  0  0
    8.7926   -1.8529    0.0000 O   0  0  0  0  0  0  0  0  0  0  0  0
   10.4065   -2.1960    0.0000 O   0  0  0  0  0  0  0  0  0  0  0  0
   10.6615   -2.9806    0.0000 H   0  0  0  0  0  0  0  0  0  0  0  0
    9.4280   -2.8314    0.0000 O   0  0  0  0  0  0  0  0  0  0  0  0
    8.6434   -3.0864    0.0000 C   0  0  0  0  0  0  0  0  0  0  0  0
    8.4719   -3.8934    0.0000 C   0  0  0  0  0  0  0  0  0  0  0  0
    9.0850   -4.4454    0.0000 H   0  0  0  0  0  0  0  0  0  0  0  0
    7.6872   -4.1483    0.0000 C   0  0  0  0  0  0  0  0  0  0  0  0
    7.5157   -4.9553    0.0000 H   0  0  0  0  0  0  0  0  0  0  0  0
    7.0742   -3.5963    0.0000 C   0  0  0  0  0  0  0  0  0  0  0  0
    6.2895   -3.8512    0.0000 C   0  0  0  0  0  0  0  0  0  0  0  0
    6.1180   -4.6582    0.0000 H   0  0  0  0  0  0  0  0  0  0  0  0
    5.6764   -3.2992    0.0000 C   0  0  0  0  0  0  0  0  0  0  0  0
    5.8480   -2.4922    0.0000 H   0  0  0  0  0  0  0  0  0  0  0  0
    4.8918   -3.5541    0.0000 C   0  0  0  0  0  0  0  0  0  0  0  0
    4.7203   -4.3611    0.0000 O   0  0  0  0  0  0  0  0  0  0  0  0
    4.2787   -3.0021    0.0000 N   0  0  0  0  0  0  0  0  0  0  0  0
    4.4502   -2.1951    0.0000 H   0  0  0  0  0  0  0  0  0  0  0  0
    3.4941   -3.2570    0.0000 C   0  0  0  0  0  0  0  0  0  0  0  0
    3.6656   -2.4500    0.0000 H   0  0  0  0  0  0  0  0  0  0  0  0
    2.8810   -2.7050    0.0000 C   0  0  0  0  0  0  0  0  0  0  0  0
    3.0525   -1.8980    0.0000 O   0  0  0  0  0  0  0  0  0  0  0  0
    2.0964   -2.9599    0.0000 N   0  0  0  0  0  0  0  0  0  0  0  0
    1.8414   -3.7445    0.0000 C   0  0  0  0  0  0  0  0  0  0  0  0
    1.3786   -4.4275    0.0000 H   0  0  0  0  0  0  0  0  0  0  0  0
    2.1472   -4.5108    0.0000 H   0  0  0  0  0  0  0  0  0  0  0  0
    1.0164   -3.7445    0.0000 C   0  0  0  0  0  0  0  0  0  0  0  0
    0.1919   -3.7714    0.0000 H   0  0  0  0  0  0  0  0  0  0  0  0
    0.4237   -4.3184    0.0000 H   0  0  0  0  0  0  0  0  0  0  0  0
    0.7615   -2.9599    0.0000 C   0  0  0  0  0  0  0  0  0  0  0  0
    0.1092   -3.4651    0.0000 H   0  0  0  0  0  0  0  0  0  0  0  0
    0.7362   -2.1353    0.0000 H   0  0  0  0  0  0  0  0  0  0  0  0
    1.4289   -2.4750    0.0000 C   0  0  0  0  0  0  0  0  0  0  0  0
    2.1640   -2.1005    0.0000 H   0  0  0  0  0  0  0  0  0  0  0  0
    1.4289   -1.6500    0.0000 C   0  0  0  0  0  0  0  0  0  0  0  0
    2.1434   -1.2375    0.0000 O   0  0  0  0  0  0  0  0  0  0  0  0
    0.7145   -1.2375    0.0000 N   0  0  0  0  0  0  0  0  0  0  0  0
    0.0000   -1.6500    0.0000 C   0  0  0  0  0  0  0  0  0  0  0  0
    0.0000   -2.4750    0.0000 C   0  0  0  0  0  0  0  0  0  0  0  0
   -0.7145   -2.0625    0.0000 H   0  0  0  0  0  0  0  0  0  0  0  0
   -0.7145   -2.8875    0.0000 C   0  0  0  0  0  0  0  0  0  0  0  0
   -0.7145   -3.7125    0.0000 H   0  0  0  0  0  0  0  0  0  0  0  0
   -1.4289   -2.4750    0.0000 C   0  0  0  0  0  0  0  0  0  0  0  0
   -2.1434   -2.8875    0.0000 H   0  0  0  0  0  0  0  0  0  0  0  0
   -1.4289   -1.6500    0.0000 C   0  0  0  0  0  0  0  0  0  0  0  0
   -2.1434   -1.2375    0.0000 H   0  0  0  0  0  0  0  0  0  0  0  0
   -0.7145   -1.2375    0.0000 C   0  0  0  0  0  0  0  0  0  0  0  0
   -0.7145   -0.4125    0.0000 H   0  0  0  0  0  0  0  0  0  0  0  0
    0.7145   -0.4125    0.0000 C   0  0  0  0  0  0  0  0  0  0  0  0
    0.0000    0.0000    0.0000 C   0  0  0  0  0  0  0  0  0  0  0  0
    0.0000   -0.8250    0.0000 H   0  0  0  0  0  0  0  0  0  0  0  0
    0.0000    0.8250    0.0000 C   0  0  0  0  0  0  0  0  0  0  0  0
   -0.7145    1.2375    0.0000 H   0  0  0  0  0  0  0  0  0  0  0  0
    0.7145    1.2375    0.0000 C   0  0  0  0  0  0  0  0  0  0  0  0
    0.7145    2.0625    0.0000 H   0  0  0  0  0  0  0  0  0  0  0  0
    1.4289    0.8250    0.0000 C   0  0  0  0  0  0  0  0  0  0  0  0
    2.1434    1.2375    0.0000 H   0  0  0  0  0  0  0  0  0  0  0  0
    1.4289    0.0000    0.0000 C   0  0  0  0  0  0  0  0  0  0  0  0
    2.1434   -0.4125    0.0000 H   0  0  0  0  0  0  0  0  0  0  0  0
    3.3226   -4.0640    0.0000 C   0  0  0  0  0  0  0  0  0  0  0  0
    2.5156   -3.8925    0.0000 C   0  0  0  0  0  0  0  0  0  0  0  0
    3.0690   -3.2806    0.0000 H   0  0  0  0  0  0  0  0  0  0  0  0
    2.2641   -3.1067    0.0000 H   0  0  0  0  0  0  0  0  0  0  0  0
    2.8460   -4.6484    0.0000 H   0  0  0  0  0  0  0  0  0  0  0  0
    4.1295   -4.2355    0.0000 C   0  0  0  0  0  0  0  0  0  0  0  0
    4.5667   -3.5359    0.0000 H   0  0  0  0  0  0  0  0  0  0  0  0
    4.0147   -3.4185    0.0000 H   0  0  0  0  0  0  0  0  0  0  0  0
    3.9580   -5.0425    0.0000 H   0  0  0  0  0  0  0  0  0  0  0  0
    3.1510   -4.8710    0.0000 C   0  0  0  0  0  0  0  0  0  0  0  0
    2.3539   -5.0834    0.0000 H   0  0  0  0  0  0  0  0  0  0  0  0
    2.8148   -5.6243    0.0000 H   0  0  0  0  0  0  0  0  0  0  0  0
    3.5252   -5.6062    0.0000 H   0  0  0  0  0  0  0  0  0  0  0  0
    7.2457   -2.7893    0.0000 C   0  0  0  0  0  0  0  0  0  0  0  0
    6.6326   -2.2373    0.0000 H   0  0  0  0  0  0  0  0  0  0  0  0
    8.0303   -2.5344    0.0000 C   0  0  0  0  0  0  0  0  0  0  0  0
    8.2018   -1.7274    0.0000 H   0  0  0  0  0  0  0  0  0  0  0  0
  1  2  1  0  0  0  0
  2  3  1  0  0  0  0
  3  4  2  0  0  0  0
  3  5  1  0  0  0  0
  5  6  1  0  0  0  0
  3  7  1  0  0  0  0
  7  8  1  0  0  0  0
  8  9  4  0  0  0  0
  9 10  1  0  0  0  0
  9 11  4  0  0  0  0
 11 12  1  0  0  0  0
 11 13  4  0  0  0  0
 13 14  1  0  0  0  0
 14 15  1  4  0  0  0
 14 16  2  0  0  0  0
 16 17  1  0  0  0  0
 16 18  1  0  0  0  0
 18 19  2  0  0  0  0
 18 20  1  0  0  0  0
 20 21  1  0  0  0  0
 20 22  1  0  0  0  0
 22 23  1  0  0  0  0
 22 24  1  0  0  0  0
 24 25  2  0  0  0  0
 24 26  1  0  0  0  0
 26 27  1  0  0  0  0
 27 28  1  0  0  0  0
 27 29  1  0  0  0  0
 27 30  1  0  0  0  0
 30 31  1  0  0  0  0
 30 32  1  0  0  0  0
 30 33  1  0  0  0  0
 33 34  1  0  0  0  0
 33 35  1  0  0  0  0
 33 36  1  0  0  0  0
 26 36  1  0  0  0  0
 36 37  1  0  0  0  0
 36 38  1  0  0  0  0
 38 39  2  0  0  0  0
 38 40  1  0  0  0  0
 40 41  1  0  0  0  0
 41 42  4  0  0  0  0
 42 43  1  0  0  0  0
 42 44  4  0  0  0  0
 44 45  1  0  0  0  0
 44 46  4  0  0  0  0
 46 47  1  0  0  0  0
 46 48  4  0  0  0  0
 48 49  1  0  0  0  0
 48 50  4  0  0  0  0
 41 50  4  0  0  0  0
 50 51  1  0  0  0  0
 40 52  1  0  0  0  0
 52 53  4  0  0  0  0
 53 54  1  0  0  0  0
 53 55  4  0  0  0  0
 55 56  1  0  0  0  0
 55 57  4  0  0  0  0
 57 58  1  0  0  0  0
 57 59  4  0  0  0  0
 59 60  1  0  0  0  0
 59 61  4  0  0  0  0
 52 61  4  0  0  0  0
 61 62  1  0  0  0  0
 22 63  1  0  0  0  0
 63 64  1  0  0  0  0
 64 65  1  0  0  0  0
 64 66  1  0  0  0  0
 64 67  1  0  0  0  0
 63 68  1  0  0  0  0
 68 69  1  0  0  0  0
 68 70  1  0  0  0  0
 68 71  1  0  0  0  0
 63 72  1  0  0  0  0
 72 73  1  0  0  0  0
 72 74  1  0  0  0  0
 72 75  1  0  0  0  0
 13 76  4  0  0  0  0
 76 77  1  0  0  0  0
 76 78  4  0  0  0  0
  8 78  4  0  0  0  0
 78 79  1  0  0  0  0
M  END
> <pActivity>
6.920818753952375

$$$$
CHEMBL3741852
  Mrv2316 04152410472D          

 69 71  0  0  0  0            999 V2000
   -8.3116   -0.1419    0.0000 H   0  0  0  0  0  0  0  0  0  0  0  0
   -7.5971   -0.5544    0.0000 O   0  0  0  0  0  0  0  0  0  0  0  0
   -6.8826   -0.1419    0.0000 P   0  0  0  0  0  0  0  0  0  0  0  0
   -6.4701   -0.8564    0.0000 O   0  0  0  0  0  0  0  0  0  0  0  0
   -7.2951    0.5725    0.0000 O   0  0  0  0  0  0  0  0  0  0  0  0
   -6.8826    1.2870    0.0000 H   0  0  0  0  0  0  0  0  0  0  0  0
   -6.1682    0.2706    0.0000 O   0  0  0  0  0  0  0  0  0  0  0  0
   -5.4537   -0.1419    0.0000 C   0  0  0  0  0  0  0  0  0  0  0  0
   -4.7392    0.2706    0.0000 C   0  0  0  0  0  0  0  0  0  0  0  0
   -4.7392    1.0956    0.0000 H   0  0  0  0  0  0  0  0  0  0  0  0
   -4.0248   -0.1419    0.0000 C   0  0  0  0  0  0  0  0  0  0  0  0
   -3.3103    0.2706    0.0000 H   0  0  0  0  0  0  0  0  0  0  0  0
   -4.0248   -0.9669    0.0000 C   0  0  0  0  0  0  0  0  0  0  0  0
   -3.3103   -1.3794    0.0000 C   0  0  0  0  0  0  0  0  0  0  0  0
   -2.5958   -0.9669    0.0000 H   0  0  0  0  0  0  0  0  0  0  0  0
   -3.3103   -2.2044    0.0000 C   0  0  0  0  0  0  0  0  0  0  0  0
   -4.0248   -2.6169    0.0000 H   0  0  0  0  0  0  0  0  0  0  0  0
   -2.5958   -2.6169    0.0000 C   0  0  0  0  0  0  0  0  0  0  0  0
   -1.8814   -2.2044    0.0000 O   0  0  0  0  0  0  0  0  0  0  0  0
   -2.5958   -3.4419    0.0000 N   0  0  0  0  0  0  0  0  0  0  0  0
   -3.3103   -3.8544    0.0000 H   0  0  0  0  0  0  0  0  0  0  0  0
   -1.8814   -3.8544    0.0000 C   0  0  0  0  0  0  0  0  0  0  0  0
   -2.5958   -4.2669    0.0000 H   0  0  0  0  0  0  0  0  0  0  0  0
   -1.8814   -4.6794    0.0000 C   0  0  0  0  0  0  0  0  0  0  0  0
   -2.5958   -5.0919    0.0000 O   0  0  0  0  0  0  0  0  0  0  0  0
   -1.1669   -5.0919    0.0000 N   0  0  0  0  0  0  0  0  0  0  0  0
   -0.4132   -4.7564    0.0000 C   0  0  0  0  0  0  0  0  0  0  0  0
    0.4040   -4.6433    0.0000 H   0  0  0  0  0  0  0  0  0  0  0  0
   -0.0483   -4.0165    0.0000 H   0  0  0  0  0  0  0  0  0  0  0  0
    0.1388   -5.3695    0.0000 C   0  0  0  0  0  0  0  0  0  0  0  0
    0.7105   -5.9643    0.0000 H   0  0  0  0  0  0  0  0  0  0  0  0
    0.9619   -5.4260    0.0000 H   0  0  0  0  0  0  0  0  0  0  0  0
   -0.2737   -6.0839    0.0000 C   0  0  0  0  0  0  0  0  0  0  0  0
    0.5382   -6.2307    0.0000 H   0  0  0  0  0  0  0  0  0  0  0  0
   -0.8696   -6.6545    0.0000 H   0  0  0  0  0  0  0  0  0  0  0  0
   -1.0806   -5.9124    0.0000 C   0  0  0  0  0  0  0  0  0  0  0  0
   -1.8508   -5.6168    0.0000 H   0  0  0  0  0  0  0  0  0  0  0  0
   -1.6937   -6.4645    0.0000 C   0  0  0  0  0  0  0  0  0  0  0  0
   -2.4784   -6.2095    0.0000 O   0  0  0  0  0  0  0  0  0  0  0  0
   -1.5222   -7.2714    0.0000 N   0  0  0  0  0  0  0  0  0  0  0  0
   -2.1353   -7.8235    0.0000 H   0  0  0  0  0  0  0  0  0  0  0  0
   -0.7376   -7.5264    0.0000 C   0  0  0  0  0  0  0  0  0  0  0  0
   -0.1245   -6.9743    0.0000 C   0  0  0  0  0  0  0  0  0  0  0  0
    0.0470   -7.7813    0.0000 H   0  0  0  0  0  0  0  0  0  0  0  0
    0.6601   -7.2293    0.0000 C   0  0  0  0  0  0  0  0  0  0  0  0
    1.2732   -6.6772    0.0000 H   0  0  0  0  0  0  0  0  0  0  0  0
    0.8317   -8.0362    0.0000 C   0  0  0  0  0  0  0  0  0  0  0  0
    1.6163   -8.2912    0.0000 H   0  0  0  0  0  0  0  0  0  0  0  0
    0.2186   -8.5883    0.0000 C   0  0  0  0  0  0  0  0  0  0  0  0
    0.3901   -9.3952    0.0000 H   0  0  0  0  0  0  0  0  0  0  0  0
   -0.5661   -8.3333    0.0000 C   0  0  0  0  0  0  0  0  0  0  0  0
   -1.1792   -8.8854    0.0000 H   0  0  0  0  0  0  0  0  0  0  0  0
   -1.1669   -3.4419    0.0000 C   0  0  0  0  0  0  0  0  0  0  0  0
   -0.7544   -4.1564    0.0000 C   0  0  0  0  0  0  0  0  0  0  0  0
   -1.5794   -4.1546    0.0000 H   0  0  0  0  0  0  0  0  0  0  0  0
   -1.1700   -4.8691    0.0000 H   0  0  0  0  0  0  0  0  0  0  0  0
   -0.4136   -3.4051    0.0000 H   0  0  0  0  0  0  0  0  0  0  0  0
   -1.5794   -2.7275    0.0000 C   0  0  0  0  0  0  0  0  0  0  0  0
   -2.3918   -2.8707    0.0000 H   0  0  0  0  0  0  0  0  0  0  0  0
   -2.1097   -3.3595    0.0000 H   0  0  0  0  0  0  0  0  0  0  0  0
   -0.8649   -2.3150    0.0000 H   0  0  0  0  0  0  0  0  0  0  0  0
   -0.4524   -3.0294    0.0000 C   0  0  0  0  0  0  0  0  0  0  0  0
    0.2389   -3.4797    0.0000 H   0  0  0  0  0  0  0  0  0  0  0  0
    0.3325   -2.7752    0.0000 H   0  0  0  0  0  0  0  0  0  0  0  0
   -0.1564   -2.2594    0.0000 H   0  0  0  0  0  0  0  0  0  0  0  0
   -4.7392   -1.3794    0.0000 C   0  0  0  0  0  0  0  0  0  0  0  0
   -4.7392   -2.2044    0.0000 H   0  0  0  0  0  0  0  0  0  0  0  0
   -5.4537   -0.9669    0.0000 C   0  0  0  0  0  0  0  0  0  0  0  0
   -6.1682   -1.3794    0.0000 H   0  0  0  0  0  0  0  0  0  0  0  0
  1  2  1  0  0  0  0
  2  3  1  0  0  0  0
  3  4  2  0  0  0  0
  3  5  1  0  0  0  0
  5  6  1  0  0  0  0
  3  7  1  0  0  0  0
  7  8  1  0  0  0  0
  8  9  4  0  0  0  0
  9 10  1  0  0  0  0
  9 11  4  0  0  0  0
 11 12  1  0  0  0  0
 11 13  4  0  0  0  0
 13 14  1  0  0  0  0
 14 15  1  4  0  0  0
 14 16  2  0  0  0  0
 16 17  1  0  0  0  0
 16 18  1  0  0  0  0
 18 19  2  0  0  0  0
 18 20  1  0  0  0  0
 20 21  1  0  0  0  0
 20 22  1  0  0  0  0
 22 23  1  0  0  0  0
 22 24  1  0  0  0  0
 24 25  2  0  0  0  0
 24 26  1  0  0  0  0
 26 27  1  0  0  0  0
 27 28  1  0  0  0  0
 27 29  1  0  0  0  0
 27 30  1  0  0  0  0
 30 31  1  0  0  0  0
 30 32  1  0  0  0  0
 30 33  1  0  0  0  0
 33 34  1  0  0  0  0
 33 35  1  0  0  0  0
 33 36  1  0  0  0  0
 26 36  1  0  0  0  0
 36 37  1  0  0  0  0
 36 38  1  0  0  0  0
 38 39  2  0  0  0  0
 38 40  1  0  0  0  0
 40 41  1  0  0  0  0
 40 42  1  0  0  0  0
 42 43  4  0  0  0  0
 43 44  1  0  0  0  0
 43 45  4  0  0  0  0
 45 46  1  0  0  0  0
 45 47  4  0  0  0  0
 47 48  1  0  0  0  0
 47 49  4  0  0  0  0
 49 50  1  0  0  0  0
 49 51  4  0  0  0  0
 42 51  4  0  0  0  0
 51 52  1  0  0  0  0
 22 53  1  0  0  0  0
 53 54  1  0  0  0  0
 54 55  1  0  0  0  0
 54 56  1  0  0  0  0
 54 57  1  0  0  0  0
 53 58  1  0  0  0  0
 58 59  1  0  0  0  0
 58 60  1  0  0  0  0
 58 61  1  0  0  0  0
 53 62  1  0  0  0  0
 62 63  1  0  0  0  0
 62 64  1  0  0  0  0
 62 65  1  0  0  0  0
 13 66  4  0  0  0  0
 66 67  1  0  0  0  0
 66 68  4  0  0  0  0
  8 68  4  0  0  0  0
 68 69  1  0  0  0  0
M  END
> <pActivity>
5.903089986991943

$$$$
CHEMBL3741938
  Mrv2316 04152410472D          

 82 85  0  0  0  0            999 V2000
    7.8045    1.3276    0.0000 H   0  0  0  0  0  0  0  0  0  0  0  0
    7.0199    1.0727    0.0000 O   0  0  0  0  0  0  0  0  0  0  0  0
    6.8484    0.2657    0.0000 P   0  0  0  0  0  0  0  0  0  0  0  0
    6.0414    0.4372    0.0000 O   0  0  0  0  0  0  0  0  0  0  0  0
    7.6553    0.0942    0.0000 O   0  0  0  0  0  0  0  0  0  0  0  0
    7.9103   -0.6904    0.0000 H   0  0  0  0  0  0  0  0  0  0  0  0
    6.6768   -0.5413    0.0000 O   0  0  0  0  0  0  0  0  0  0  0  0
    5.8922   -0.7962    0.0000 C   0  0  0  0  0  0  0  0  0  0  0  0
    5.7207   -1.6032    0.0000 C   0  0  0  0  0  0  0  0  0  0  0  0
    6.3338   -2.1552    0.0000 H   0  0  0  0  0  0  0  0  0  0  0  0
    4.9361   -1.8581    0.0000 C   0  0  0  0  0  0  0  0  0  0  0  0
    4.7645   -2.6651    0.0000 H   0  0  0  0  0  0  0  0  0  0  0  0
    4.3230   -1.3061    0.0000 C   0  0  0  0  0  0  0  0  0  0  0  0
    3.5384   -1.5610    0.0000 C   0  0  0  0  0  0  0  0  0  0  0  0
    2.9253   -1.0090    0.0000 C   0  0  0  0  0  0  0  0  0  0  0  0
    3.0968   -0.2020    0.0000 H   0  0  0  0  0  0  0  0  0  0  0  0
    2.1406   -1.2639    0.0000 C   0  0  0  0  0  0  0  0  0  0  0  0
    1.9691   -2.0709    0.0000 O   0  0  0  0  0  0  0  0  0  0  0  0
    1.5275   -0.7119    0.0000 N   0  0  0  0  0  0  0  0  0  0  0  0
    1.6991    0.0951    0.0000 H   0  0  0  0  0  0  0  0  0  0  0  0
    0.7429   -0.9668    0.0000 C   0  0  0  0  0  0  0  0  0  0  0  0
    0.9144   -0.1599    0.0000 H   0  0  0  0  0  0  0  0  0  0  0  0
    0.1298   -0.4148    0.0000 C   0  0  0  0  0  0  0  0  0  0  0  0
    0.3014    0.3922    0.0000 O   0  0  0  0  0  0  0  0  0  0  0  0
   -0.6548   -0.6697    0.0000 N   0  0  0  0  0  0  0  0  0  0  0  0
   -0.9097   -1.4544    0.0000 C   0  0  0  0  0  0  0  0  0  0  0  0
   -1.3726   -2.1373    0.0000 H   0  0  0  0  0  0  0  0  0  0  0  0
   -0.6040   -2.2206    0.0000 H   0  0  0  0  0  0  0  0  0  0  0  0
   -1.7347   -1.4544    0.0000 C   0  0  0  0  0  0  0  0  0  0  0  0
   -2.5593   -1.4812    0.0000 H   0  0  0  0  0  0  0  0  0  0  0  0
   -2.3275   -2.0282    0.0000 H   0  0  0  0  0  0  0  0  0  0  0  0
   -1.9897   -0.6697    0.0000 C   0  0  0  0  0  0  0  0  0  0  0  0
   -2.6419   -1.1749    0.0000 H   0  0  0  0  0  0  0  0  0  0  0  0
   -2.0149    0.1549    0.0000 H   0  0  0  0  0  0  0  0  0  0  0  0
   -1.3222   -0.1848    0.0000 C   0  0  0  0  0  0  0  0  0  0  0  0
   -0.5872    0.1897    0.0000 H   0  0  0  0  0  0  0  0  0  0  0  0
   -1.3222    0.6402    0.0000 C   0  0  0  0  0  0  0  0  0  0  0  0
   -0.6078    1.0527    0.0000 O   0  0  0  0  0  0  0  0  0  0  0  0
   -2.0367    1.0527    0.0000 N   0  0  0  0  0  0  0  0  0  0  0  0
   -2.0367    1.8777    0.0000 C   0  0  0  0  0  0  0  0  0  0  0  0
   -2.7512    2.2902    0.0000 C   0  0  0  0  0  0  0  0  0  0  0  0
   -3.4656    1.8777    0.0000 H   0  0  0  0  0  0  0  0  0  0  0  0
   -2.7512    3.1152    0.0000 C   0  0  0  0  0  0  0  0  0  0  0  0
   -3.4656    3.5277    0.0000 H   0  0  0  0  0  0  0  0  0  0  0  0
   -2.0367    3.5277    0.0000 C   0  0  0  0  0  0  0  0  0  0  0  0
   -2.0367    4.3527    0.0000 H   0  0  0  0  0  0  0  0  0  0  0  0
   -1.3222    3.1152    0.0000 C   0  0  0  0  0  0  0  0  0  0  0  0
   -0.6078    3.5277    0.0000 H   0  0  0  0  0  0  0  0  0  0  0  0
   -1.3222    2.2902    0.0000 C   0  0  0  0  0  0  0  0  0  0  0  0
   -0.6078    1.8777    0.0000 H   0  0  0  0  0  0  0  0  0  0  0  0
   -2.7512    0.6402    0.0000 C   0  0  0  0  0  0  0  0  0  0  0  0
   -2.7512   -0.1848    0.0000 C   0  0  0  0  0  0  0  0  0  0  0  0
   -3.4656    0.2277    0.0000 H   0  0  0  0  0  0  0  0  0  0  0  0
   -3.4656   -0.5973    0.0000 C   0  0  0  0  0  0  0  0  0  0  0  0
   -3.4656   -1.4223    0.0000 H   0  0  0  0  0  0  0  0  0  0  0  0
   -4.1801   -0.1848    0.0000 C   0  0  0  0  0  0  0  0  0  0  0  0
   -4.8946   -0.5973    0.0000 I   0  0  0  0  0  0  0  0  0  0  0  0
   -4.1801    0.6402    0.0000 C   0  0  0  0  0  0  0  0  0  0  0  0
   -4.8946    1.0527    0.0000 H   0  0  0  0  0  0  0  0  0  0  0  0
   -3.4656    1.0527    0.0000 C   0  0  0  0  0  0  0  0  0  0  0  0
   -2.7512    1.4652    0.0000 H   0  0  0  0  0  0  0  0  0  0  0  0
    0.5714   -1.7738    0.0000 C   0  0  0  0  0  0  0  0  0  0  0  0
   -0.2356   -1.6023    0.0000 C   0  0  0  0  0  0  0  0  0  0  0  0
    0.3178   -0.9904    0.0000 H   0  0  0  0  0  0  0  0  0  0  0  0
   -0.4871   -0.8166    0.0000 H   0  0  0  0  0  0  0  0  0  0  0  0
    0.0948   -2.3582    0.0000 H   0  0  0  0  0  0  0  0  0  0  0  0
    1.3784   -1.9453    0.0000 C   0  0  0  0  0  0  0  0  0  0  0  0
    1.8155   -1.2457    0.0000 H   0  0  0  0  0  0  0  0  0  0  0  0
    1.2635   -1.1284    0.0000 H   0  0  0  0  0  0  0  0  0  0  0  0
    1.2068   -2.7523    0.0000 H   0  0  0  0  0  0  0  0  0  0  0  0
    0.3999   -2.5808    0.0000 C   0  0  0  0  0  0  0  0  0  0  0  0
   -0.3973   -2.7932    0.0000 H   0  0  0  0  0  0  0  0  0  0  0  0
    0.0636   -3.3341    0.0000 H   0  0  0  0  0  0  0  0  0  0  0  0
    0.7741   -3.3160    0.0000 H   0  0  0  0  0  0  0  0  0  0  0  0
    3.3668   -2.3680    0.0000 C   0  0  0  0  0  0  0  0  0  0  0  0
    2.5599   -2.1965    0.0000 H   0  0  0  0  0  0  0  0  0  0  0  0
    3.1953   -3.1750    0.0000 H   0  0  0  0  0  0  0  0  0  0  0  0
    4.1738   -2.5395    0.0000 H   0  0  0  0  0  0  0  0  0  0  0  0
    4.4945   -0.4991    0.0000 C   0  0  0  0  0  0  0  0  0  0  0  0
    3.8814    0.0529    0.0000 H   0  0  0  0  0  0  0  0  0  0  0  0
    5.2791   -0.2442    0.0000 C   0  0  0  0  0  0  0  0  0  0  0  0
    5.4506    0.5628    0.0000 H   0  0  0  0  0  0  0  0  0  0  0  0
  1  2  1  0  0  0  0
  2  3  1  0  0  0  0
  3  4  2  0  0  0  0
  3  5  1  0  0  0  0
  5  6  1  0  0  0  0
  3  7  1  0  0  0  0
  7  8  1  0  0  0  0
  8  9  4  0  0  0  0
  9 10  1  0  0  0  0
  9 11  4  0  0  0  0
 11 12  1  0  0  0  0
 11 13  4  0  0  0  0
 13 14  1  0  0  0  0
 14 15  2  0  0  0  0
 15 16  1  4  0  0  0
 15 17  1  0  0  0  0
 17 18  2  0  0  0  0
 17 19  1  0  0  0  0
 19 20  1  0  0  0  0
 19 21  1  0  0  0  0
 21 22  1  0  0  0  0
 21 23  1  0  0  0  0
 23 24  2  0  0  0  0
 23 25  1  0  0  0  0
 25 26  1  0  0  0  0
 26 27  1  0  0  0  0
 26 28  1  0  0  0  0
 26 29  1  0  0  0  0
 29 30  1  0  0  0  0
 29 31  1  0  0  0  0
 29 32  1  0  0  0  0
 32 33  1  0  0  0  0
 32 34  1  0  0  0  0
 32 35  1  0  0  0  0
 25 35  1  0  0  0  0
 35 36  1  0  0  0  0
 35 37  1  0  0  0  0
 37 38  2  0  0  0  0
 37 39  1  0  0  0  0
 39 40  1  0  0  0  0
 40 41  4  0  0  0  0
 41 42  1  0  0  0  0
 41 43  4  0  0  0  0
 43 44  1  0  0  0  0
 43 45  4  0  0  0  0
 45 46  1  0  0  0  0
 45 47  4  0  0  0  0
 47 48  1  0  0  0  0
 47 49  4  0  0  0  0
 40 49  4  0  0  0  0
 49 50  1  0  0  0  0
 39 51  1  0  0  0  0
 51 52  4  0  0  0  0
 52 53  1  0  0  0  0
 52 54  4  0  0  0  0
 54 55  1  0  0  0  0
 54 56  4  0  0  0  0
 56 57  1  0  0  0  0
 56 58  4  0  0  0  0
 58 59  1  0  0  0  0
 58 60  4  0  0  0  0
 51 60  4  0  0  0  0
 60 61  1  0  0  0  0
 21 62  1  0  0  0  0
 62 63  1  0  0  0  0
 63 64  1  0  0  0  0
 63 65  1  0  0  0  0
 63 66  1  0  0  0  0
 62 67  1  0  0  0  0
 67 68  1  0  0  0  0
 67 69  1  0  0  0  0
 67 70  1  0  0  0  0
 62 71  1  0  0  0  0
 71 72  1  0  0  0  0
 71 73  1  0  0  0  0
 71 74  1  0  0  0  0
 14 75  1  0  0  0  0
 75 76  1  0  0  0  0
 75 77  1  0  0  0  0
 75 78  1  0  0  0  0
 13 79  4  0  0  0  0
 79 80  1  0  0  0  0
 79 81  4  0  0  0  0
  8 81  4  0  0  0  0
 81 82  1  0  0  0  0
M  END
> <pActivity>
7.552841968657781

$$$$
CHEMBL3741886
  Mrv2316 04152410472D          

 82 85  0  0  0  0            999 V2000
   10.5557   -0.9626    0.0000 H   0  0  0  0  0  0  0  0  0  0  0  0
    9.7711   -1.2175    0.0000 O   0  0  0  0  0  0  0  0  0  0  0  0
    9.5995   -2.0245    0.0000 P   0  0  0  0  0  0  0  0  0  0  0  0
    8.7926   -1.8529    0.0000 O   0  0  0  0  0  0  0  0  0  0  0  0
   10.4065   -2.1960    0.0000 O   0  0  0  0  0  0  0  0  0  0  0  0
   10.6615   -2.9806    0.0000 H   0  0  0  0  0  0  0  0  0  0  0  0
    9.4280   -2.8314    0.0000 O   0  0  0  0  0  0  0  0  0  0  0  0
    8.6434   -3.0864    0.0000 C   0  0  0  0  0  0  0  0  0  0  0  0
    8.4719   -3.8934    0.0000 C   0  0  0  0  0  0  0  0  0  0  0  0
    9.0850   -4.4454    0.0000 H   0  0  0  0  0  0  0  0  0  0  0  0
    7.6872   -4.1483    0.0000 C   0  0  0  0  0  0  0  0  0  0  0  0
    7.5157   -4.9553    0.0000 H   0  0  0  0  0  0  0  0  0  0  0  0
    7.0742   -3.5963    0.0000 C   0  0  0  0  0  0  0  0  0  0  0  0
    6.2895   -3.8512    0.0000 C   0  0  0  0  0  0  0  0  0  0  0  0
    5.6764   -3.2992    0.0000 C   0  0  0  0  0  0  0  0  0  0  0  0
    5.8480   -2.4922    0.0000 H   0  0  0  0  0  0  0  0  0  0  0  0
    4.8918   -3.5541    0.0000 C   0  0  0  0  0  0  0  0  0  0  0  0
    4.7203   -4.3611    0.0000 O   0  0  0  0  0  0  0  0  0  0  0  0
    4.2787   -3.0021    0.0000 N   0  0  0  0  0  0  0  0  0  0  0  0
    4.4502   -2.1951    0.0000 H   0  0  0  0  0  0  0  0  0  0  0  0
    3.4941   -3.2570    0.0000 C   0  0  0  0  0  0  0  0  0  0  0  0
    3.6656   -2.4500    0.0000 H   0  0  0  0  0  0  0  0  0  0  0  0
    2.8810   -2.7050    0.0000 C   0  0  0  0  0  0  0  0  0  0  0  0
    3.0525   -1.8980    0.0000 O   0  0  0  0  0  0  0  0  0  0  0  0
    2.0964   -2.9599    0.0000 N   0  0  0  0  0  0  0  0  0  0  0  0
    1.8414   -3.7445    0.0000 C   0  0  0  0  0  0  0  0  0  0  0  0
    1.3786   -4.4275    0.0000 H   0  0  0  0  0  0  0  0  0  0  0  0
    2.1472   -4.5108    0.0000 H   0  0  0  0  0  0  0  0  0  0  0  0
    1.0164   -3.7445    0.0000 C   0  0  0  0  0  0  0  0  0  0  0  0
    0.1919   -3.7714    0.0000 H   0  0  0  0  0  0  0  0  0  0  0  0
    0.4237   -4.3184    0.0000 H   0  0  0  0  0  0  0  0  0  0  0  0
    0.7615   -2.9599    0.0000 C   0  0  0  0  0  0  0  0  0  0  0  0
    0.1092   -3.4651    0.0000 H   0  0  0  0  0  0  0  0  0  0  0  0
    0.7362   -2.1353    0.0000 H   0  0  0  0  0  0  0  0  0  0  0  0
    1.4289   -2.4750    0.0000 C   0  0  0  0  0  0  0  0  0  0  0  0
    2.1640   -2.1005    0.0000 H   0  0  0  0  0  0  0  0  0  0  0  0
    1.4289   -1.6500    0.0000 C   0  0  0  0  0  0  0  0  0  0  0  0
    2.1434   -1.2375    0.0000 O   0  0  0  0  0  0  0  0  0  0  0  0
    0.7145   -1.2375    0.0000 N   0  0  0  0  0  0  0  0  0  0  0  0
    0.0000   -1.6500    0.0000 C   0  0  0  0  0  0  0  0  0  0  0  0
    0.0000   -2.4750    0.0000 C   0  0  0  0  0  0  0  0  0  0  0  0
   -0.7145   -2.0625    0.0000 H   0  0  0  0  0  0  0  0  0  0  0  0
   -0.7145   -2.8875    0.0000 C   0  0  0  0  0  0  0  0  0  0  0  0
   -0.7145   -3.7125    0.0000 H   0  0  0  0  0  0  0  0  0  0  0  0
   -1.4289   -2.4750    0.0000 C   0  0  0  0  0  0  0  0  0  0  0  0
   -2.1434   -2.8875    0.0000 H   0  0  0  0  0  0  0  0  0  0  0  0
   -1.4289   -1.6500    0.0000 C   0  0  0  0  0  0  0  0  0  0  0  0
   -2.1434   -1.2375    0.0000 H   0  0  0  0  0  0  0  0  0  0  0  0
   -0.7145   -1.2375    0.0000 C   0  0  0  0  0  0  0  0  0  0  0  0
   -0.7145   -0.4125    0.0000 H   0  0  0  0  0  0  0  0  0  0  0  0
    0.7145   -0.4125    0.0000 C   0  0  0  0  0  0  0  0  0  0  0  0
    0.0000    0.0000    0.0000 C   0  0  0  0  0  0  0  0  0  0  0  0
    0.0000   -0.8250    0.0000 H   0  0  0  0  0  0  0  0  0  0  0  0
    0.0000    0.8250    0.0000 C   0  0  0  0  0  0  0  0  0  0  0  0
   -0.7145    1.2375    0.0000 H   0  0  0  0  0  0  0  0  0  0  0  0
    0.7145    1.2375    0.0000 C   0  0  0  0  0  0  0  0  0  0  0  0
    0.7145    2.0625    0.0000 H   0  0  0  0  0  0  0  0  0  0  0  0
    1.4289    0.8250    0.0000 C   0  0  0  0  0  0  0  0  0  0  0  0
    2.1434    1.2375    0.0000 H   0  0  0  0  0  0  0  0  0  0  0  0
    1.4289    0.0000    0.0000 C   0  0  0  0  0  0  0  0  0  0  0  0
    2.1434   -0.4125    0.0000 H   0  0  0  0  0  0  0  0  0  0  0  0
    3.3226   -4.0640    0.0000 C   0  0  0  0  0  0  0  0  0  0  0  0
    2.5156   -3.8925    0.0000 C   0  0  0  0  0  0  0  0  0  0  0  0
    3.0690   -3.2806    0.0000 H   0  0  0  0  0  0  0  0  0  0  0  0
    2.2641   -3.1067    0.0000 H   0  0  0  0  0  0  0  0  0  0  0  0
    2.8460   -4.6484    0.0000 H   0  0  0  0  0  0  0  0  0  0  0  0
    4.1295   -4.2355    0.0000 C   0  0  0  0  0  0  0  0  0  0  0  0
    4.5667   -3.5359    0.0000 H   0  0  0  0  0  0  0  0  0  0  0  0
    4.0147   -3.4185    0.0000 H   0  0  0  0  0  0  0  0  0  0  0  0
    3.9580   -5.0425    0.0000 H   0  0  0  0  0  0  0  0  0  0  0  0
    3.1510   -4.8710    0.0000 C   0  0  0  0  0  0  0  0  0  0  0  0
    2.3539   -5.0834    0.0000 H   0  0  0  0  0  0  0  0  0  0  0  0
    2.8148   -5.6243    0.0000 H   0  0  0  0  0  0  0  0  0  0  0  0
    3.5252   -5.6062    0.0000 H   0  0  0  0  0  0  0  0  0  0  0  0
    6.1180   -4.6582    0.0000 C   0  0  0  0  0  0  0  0  0  0  0  0
    5.3110   -4.4866    0.0000 H   0  0  0  0  0  0  0  0  0  0  0  0
    5.9465   -5.4651    0.0000 H   0  0  0  0  0  0  0  0  0  0  0  0
    6.9250   -4.8297    0.0000 H   0  0  0  0  0  0  0  0  0  0  0  0
    7.2457   -2.7893    0.0000 C   0  0  0  0  0  0  0  0  0  0  0  0
    6.6326   -2.2373    0.0000 H   0  0  0  0  0  0  0  0  0  0  0  0
    8.0303   -2.5344    0.0000 C   0  0  0  0  0  0  0  0  0  0  0  0
    8.2018   -1.7274    0.0000 H   0  0  0  0  0  0  0  0  0  0  0  0
  1  2  1  0  0  0  0
  2  3  1  0  0  0  0
  3  4  2  0  0  0  0
  3  5  1  0  0  0  0
  5  6  1  0  0  0  0
  3  7  1  0  0  0  0
  7  8  1  0  0  0  0
  8  9  4  0  0  0  0
  9 10  1  0  0  0  0
  9 11  4  0  0  0  0
 11 12  1  0  0  0  0
 11 13  4  0  0  0  0
 13 14  1  0  0  0  0
 14 15  2  0  0  0  0
 15 16  1  4  0  0  0
 15 17  1  0  0  0  0
 17 18  2  0  0  0  0
 17 19  1  0  0  0  0
 19 20  1  0  0  0  0
 19 21  1  0  0  0  0
 21 22  1  0  0  0  0
 21 23  1  0  0  0  0
 23 24  2  0  0  0  0
 23 25  1  0  0  0  0
 25 26  1  0  0  0  0
 26 27  1  0  0  0  0
 26 28  1  0  0  0  0
 26 29  1  0  0  0  0
 29 30  1  0  0  0  0
 29 31  1  0  0  0  0
 29 32  1  0  0  0  0
 32 33  1  0  0  0  0
 32 34  1  0  0  0  0
 32 35  1  0  0  0  0
 25 35  1  0  0  0  0
 35 36  1  0  0  0  0
 35 37  1  0  0  0  0
 37 38  2  0  0  0  0
 37 39  1  0  0  0  0
 39 40  1  0  0  0  0
 40 41  4  0  0  0  0
 41 42  1  0  0  0  0
 41 43  4  0  0  0  0
 43 44  1  0  0  0  0
 43 45  4  0  0  0  0
 45 46  1  0  0  0  0
 45 47  4  0  0  0  0
 47 48  1  0  0  0  0
 47 49  4  0  0  0  0
 40 49  4  0  0  0  0
 49 50  1  0  0  0  0
 39 51  1  0  0  0  0
 51 52  4  0  0  0  0
 52 53  1  0  0  0  0
 52 54  4  0  0  0  0
 54 55  1  0  0  0  0
 54 56  4  0  0  0  0
 56 57  1  0  0  0  0
 56 58  4  0  0  0  0
 58 59  1  0  0  0  0
 58 60  4  0  0  0  0
 51 60  4  0  0  0  0
 60 61  1  0  0  0  0
 21 62  1  0  0  0  0
 62 63  1  0  0  0  0
 63 64  1  0  0  0  0
 63 65  1  0  0  0  0
 63 66  1  0  0  0  0
 62 67  1  0  0  0  0
 67 68  1  0  0  0  0
 67 69  1  0  0  0  0
 67 70  1  0  0  0  0
 62 71  1  0  0  0  0
 71 72  1  0  0  0  0
 71 73  1  0  0  0  0
 71 74  1  0  0  0  0
 14 75  1  0  0  0  0
 75 76  1  0  0  0  0
 75 77  1  0  0  0  0
 75 78  1  0  0  0  0
 13 79  4  0  0  0  0
 79 80  1  0  0  0  0
 79 81  4  0  0  0  0
  8 81  4  0  0  0  0
 81 82  1  0  0  0  0
M  END
> <pActivity>
7.050609993355087

$$$$
CHEMBL3740710
  Mrv2316 04152410472D          

 72 74  0  0  0  0            999 V2000
   -8.3116   -0.1419    0.0000 H   0  0  0  0  0  0  0  0  0  0  0  0
   -7.5971   -0.5544    0.0000 O   0  0  0  0  0  0  0  0  0  0  0  0
   -6.8826   -0.1419    0.0000 P   0  0  0  0  0  0  0  0  0  0  0  0
   -6.4701   -0.8564    0.0000 O   0  0  0  0  0  0  0  0  0  0  0  0
   -7.2951    0.5725    0.0000 O   0  0  0  0  0  0  0  0  0  0  0  0
   -6.8826    1.2870    0.0000 H   0  0  0  0  0  0  0  0  0  0  0  0
   -6.1682    0.2706    0.0000 O   0  0  0  0  0  0  0  0  0  0  0  0
   -5.4537   -0.1419    0.0000 C   0  0  0  0  0  0  0  0  0  0  0  0
   -4.7392    0.2706    0.0000 C   0  0  0  0  0  0  0  0  0  0  0  0
   -4.7392    1.0956    0.0000 H   0  0  0  0  0  0  0  0  0  0  0  0
   -4.0248   -0.1419    0.0000 C   0  0  0  0  0  0  0  0  0  0  0  0
   -3.3103    0.2706    0.0000 H   0  0  0  0  0  0  0  0  0  0  0  0
   -4.0248   -0.9669    0.0000 C   0  0  0  0  0  0  0  0  0  0  0  0
   -3.3103   -1.3794    0.0000 C   0  0  0  0  0  0  0  0  0  0  0  0
   -3.3103   -2.2044    0.0000 C   0  0  0  0  0  0  0  0  0  0  0  0
   -4.0248   -2.6169    0.0000 H   0  0  0  0  0  0  0  0  0  0  0  0
   -2.5958   -2.6169    0.0000 C   0  0  0  0  0  0  0  0  0  0  0  0
   -1.8814   -2.2044    0.0000 O   0  0  0  0  0  0  0  0  0  0  0  0
   -2.5958   -3.4419    0.0000 N   0  0  0  0  0  0  0  0  0  0  0  0
   -3.3103   -3.8544    0.0000 H   0  0  0  0  0  0  0  0  0  0  0  0
   -1.8814   -3.8544    0.0000 C   0  0  0  0  0  0  0  0  0  0  0  0
   -2.5958   -4.2669    0.0000 H   0  0  0  0  0  0  0  0  0  0  0  0
   -1.8814   -4.6794    0.0000 C   0  0  0  0  0  0  0  0  0  0  0  0
   -2.5958   -5.0919    0.0000 O   0  0  0  0  0  0  0  0  0  0  0  0
   -1.1669   -5.0919    0.0000 N   0  0  0  0  0  0  0  0  0  0  0  0
   -0.4132   -4.7564    0.0000 C   0  0  0  0  0  0  0  0  0  0  0  0
    0.4040   -4.6433    0.0000 H   0  0  0  0  0  0  0  0  0  0  0  0
   -0.0483   -4.0165    0.0000 H   0  0  0  0  0  0  0  0  0  0  0  0
    0.1388   -5.3695    0.0000 C   0  0  0  0  0  0  0  0  0  0  0  0
    0.7105   -5.9643    0.0000 H   0  0  0  0  0  0  0  0  0  0  0  0
    0.9619   -5.4260    0.0000 H   0  0  0  0  0  0  0  0  0  0  0  0
   -0.2737   -6.0839    0.0000 C   0  0  0  0  0  0  0  0  0  0  0  0
    0.5382   -6.2307    0.0000 H   0  0  0  0  0  0  0  0  0  0  0  0
   -0.8696   -6.6545    0.0000 H   0  0  0  0  0  0  0  0  0  0  0  0
   -1.0806   -5.9124    0.0000 C   0  0  0  0  0  0  0  0  0  0  0  0
   -1.8508   -5.6168    0.0000 H   0  0  0  0  0  0  0  0  0  0  0  0
   -1.6937   -6.4645    0.0000 C   0  0  0  0  0  0  0  0  0  0  0  0
   -2.4784   -6.2095    0.0000 O   0  0  0  0  0  0  0  0  0  0  0  0
   -1.5222   -7.2714    0.0000 N   0  0  0  0  0  0  0  0  0  0  0  0
   -2.1353   -7.8235    0.0000 H   0  0  0  0  0  0  0  0  0  0  0  0
   -0.7376   -7.5264    0.0000 C   0  0  0  0  0  0  0  0  0  0  0  0
   -0.1245   -6.9743    0.0000 C   0  0  0  0  0  0  0  0  0  0  0  0
    0.0470   -7.7813    0.0000 H   0  0  0  0  0  0  0  0  0  0  0  0
    0.6601   -7.2293    0.0000 C   0  0  0  0  0  0  0  0  0  0  0  0
    1.2732   -6.6772    0.0000 H   0  0  0  0  0  0  0  0  0  0  0  0
    0.8317   -8.0362    0.0000 C   0  0  0  0  0  0  0  0  0  0  0  0
    1.6163   -8.2912    0.0000 H   0  0  0  0  0  0  0  0  0  0  0  0
    0.2186   -8.5883    0.0000 C   0  0  0  0  0  0  0  0  0  0  0  0
    0.3901   -9.3952    0.0000 H   0  0  0  0  0  0  0  0  0  0  0  0
   -0.5661   -8.3333    0.0000 C   0  0  0  0  0  0  0  0  0  0  0  0
   -1.1792   -8.8854    0.0000 H   0  0  0  0  0  0  0  0  0  0  0  0
   -1.1669   -3.4419    0.0000 C   0  0  0  0  0  0  0  0  0  0  0  0
   -0.7544   -4.1564    0.0000 C   0  0  0  0  0  0  0  0  0  0  0  0
   -1.5794   -4.1546    0.0000 H   0  0  0  0  0  0  0  0  0  0  0  0
   -1.1700   -4.8691    0.0000 H   0  0  0  0  0  0  0  0  0  0  0  0
   -0.4136   -3.4051    0.0000 H   0  0  0  0  0  0  0  0  0  0  0  0
   -1.5794   -2.7275    0.0000 C   0  0  0  0  0  0  0  0  0  0  0  0
   -2.3918   -2.8707    0.0000 H   0  0  0  0  0  0  0  0  0  0  0  0
   -2.1097   -3.3595    0.0000 H   0  0  0  0  0  0  0  0  0  0  0  0
   -0.8649   -2.3150    0.0000 H   0  0  0  0  0  0  0  0  0  0  0  0
   -0.4524   -3.0294    0.0000 C   0  0  0  0  0  0  0  0  0  0  0  0
    0.2389   -3.4797    0.0000 H   0  0  0  0  0  0  0  0  0  0  0  0
    0.3325   -2.7752    0.0000 H   0  0  0  0  0  0  0  0  0  0  0  0
   -0.1564   -2.2594    0.0000 H   0  0  0  0  0  0  0  0  0  0  0  0
   -2.5958   -0.9669    0.0000 C   0  0  0  0  0  0  0  0  0  0  0  0
   -2.1833   -1.6814    0.0000 H   0  0  0  0  0  0  0  0  0  0  0  0
   -1.8814   -0.5544    0.0000 H   0  0  0  0  0  0  0  0  0  0  0  0
   -3.0083   -0.2525    0.0000 H   0  0  0  0  0  0  0  0  0  0  0  0
   -4.7392   -1.3794    0.0000 C   0  0  0  0  0  0  0  0  0  0  0  0
   -4.7392   -2.2044    0.0000 H   0  0  0  0  0  0  0  0  0  0  0  0
   -5.4537   -0.9669    0.0000 C   0  0  0  0  0  0  0  0  0  0  0  0
   -6.1682   -1.3794    0.0000 H   0  0  0  0  0  0  0  0  0  0  0  0
  1  2  1  0  0  0  0
  2  3  1  0  0  0  0
  3  4  2  0  0  0  0
  3  5  1  0  0  0  0
  5  6  1  0  0  0  0
  3  7  1  0  0  0  0
  7  8  1  0  0  0  0
  8  9  4  0  0  0  0
  9 10  1  0  0  0  0
  9 11  4  0  0  0  0
 11 12  1  0  0  0  0
 11 13  4  0  0  0  0
 13 14  1  0  0  0  0
 14 15  2  0  0  0  0
 15 16  1  4  0  0  0
 15 17  1  0  0  0  0
 17 18  2  0  0  0  0
 17 19  1  0  0  0  0
 19 20  1  0  0  0  0
 19 21  1  0  0  0  0
 21 22  1  0  0  0  0
 21 23  1  0  0  0  0
 23 24  2  0  0  0  0
 23 25  1  0  0  0  0
 25 26  1  0  0  0  0
 26 27  1  0  0  0  0
 26 28  1  0  0  0  0
 26 29  1  0  0  0  0
 29 30  1  0  0  0  0
 29 31  1  0  0  0  0
 29 32  1  0  0  0  0
 32 33  1  0  0  0  0
 32 34  1  0  0  0  0
 32 35  1  0  0  0  0
 25 35  1  0  0  0  0
 35 36  1  0  0  0  0
 35 37  1  0  0  0  0
 37 38  2  0  0  0  0
 37 39  1  0  0  0  0
 39 40  1  0  0  0  0
 39 41  1  0  0  0  0
 41 42  4  0  0  0  0
 42 43  1  0  0  0  0
 42 44  4  0  0  0  0
 44 45  1  0  0  0  0
 44 46  4  0  0  0  0
 46 47  1  0  0  0  0
 46 48  4  0  0  0  0
 48 49  1  0  0  0  0
 48 50  4  0  0  0  0
 41 50  4  0  0  0  0
 50 51  1  0  0  0  0
 21 52  1  0  0  0  0
 52 53  1  0  0  0  0
 53 54  1  0  0  0  0
 53 55  1  0  0  0  0
 53 56  1  0  0  0  0
 52 57  1  0  0  0  0
 57 58  1  0  0  0  0
 57 59  1  0  0  0  0
 57 60  1  0  0  0  0
 52 61  1  0  0  0  0
 61 62  1  0  0  0  0
 61 63  1  0  0  0  0
 61 64  1  0  0  0  0
 14 65  1  0  0  0  0
 65 66  1  0  0  0  0
 65 67  1  0  0  0  0
 65 68  1  0  0  0  0
 13 69  4  0  0  0  0
 69 70  1  0  0  0  0
 69 71  4  0  0  0  0
  8 71  4  0  0  0  0
 71 72  1  0  0  0  0
M  END
> <pActivity>
6.568636235841012

$$$$
CHEMBL389452
  Mrv2316 04152410472D          

 54 56  0  0  0  0            999 V2000
    5.0013    3.7125    0.0000 H   0  0  0  0  0  0  0  0  0  0  0  0
    4.2868    3.3000    0.0000 O   0  0  0  0  0  0  0  0  0  0  0  0
    4.2868    2.4750    0.0000 C   0  0  0  0  0  0  0  0  0  0  0  0
    5.0013    2.0625    0.0000 C   0  0  0  0  0  0  0  0  0  0  0  0
    5.7158    2.4750    0.0000 H   0  0  0  0  0  0  0  0  0  0  0  0
    5.0013    1.2375    0.0000 C   0  0  0  0  0  0  0  0  0  0  0  0
    5.7158    0.8250    0.0000 H   0  0  0  0  0  0  0  0  0  0  0  0
    4.2868    0.8250    0.0000 C   0  0  0  0  0  0  0  0  0  0  0  0
    4.2868    0.0000    0.0000 C   0  0  0  0  0  0  0  0  0  0  0  0
    4.7402   -0.6893    0.0000 H   0  0  0  0  0  0  0  0  0  0  0  0
    5.1104   -0.0480    0.0000 H   0  0  0  0  0  0  0  0  0  0  0  0
    3.5724   -0.4125    0.0000 C   0  0  0  0  0  0  0  0  0  0  0  0
    3.1190    0.2768    0.0000 H   0  0  0  0  0  0  0  0  0  0  0  0
    2.7488   -0.3645    0.0000 H   0  0  0  0  0  0  0  0  0  0  0  0
    3.5724   -1.2375    0.0000 N   0  0  0  0  0  0  0  0  0  0  0  0
    4.2868   -1.6500    0.0000 H   0  0  0  0  0  0  0  0  0  0  0  0
    2.8579   -1.6500    0.0000 C   0  0  0  0  0  0  0  0  0  0  0  0
    2.8579   -2.4750    0.0000 N   0  0  0  0  0  0  0  0  0  0  0  0
    2.1434   -2.8875    0.0000 C   0  0  0  0  0  0  0  0  0  0  0  0
    2.1434   -3.7125    0.0000 H   0  0  0  0  0  0  0  0  0  0  0  0
    1.4289   -2.4750    0.0000 C   0  0  0  0  0  0  0  0  0  0  0  0
    0.7145   -2.8875    0.0000 C   0  0  0  0  0  0  0  0  0  0  0  0
   -0.0000   -2.4750    0.0000 O   0  0  0  0  0  0  0  0  0  0  0  0
    0.7145   -3.7125    0.0000 N   0  0  0  0  0  0  0  0  0  0  0  0
    1.4289   -4.1250    0.0000 H   0  0  0  0  0  0  0  0  0  0  0  0
   -0.0000   -4.1250    0.0000 C   0  0  0  0  0  0  0  0  0  0  0  0
   -0.4533   -3.4357    0.0000 H   0  0  0  0  0  0  0  0  0  0  0  0
   -0.8236   -4.0770    0.0000 H   0  0  0  0  0  0  0  0  0  0  0  0
   -0.0000   -4.9500    0.0000 C   0  0  0  0  0  0  0  0  0  0  0  0
   -0.8250   -4.9500    0.0000 H   0  0  0  0  0  0  0  0  0  0  0  0
   -0.0000   -5.7750    0.0000 H   0  0  0  0  0  0  0  0  0  0  0  0
    0.8250   -4.9500    0.0000 H   0  0  0  0  0  0  0  0  0  0  0  0
    1.4289   -1.6500    0.0000 C   0  0  0  0  0  0  0  0  0  0  0  0
    0.7145   -1.2375    0.0000 N   0  0  0  0  0  0  0  0  0  0  0  0
   -0.0000   -1.6500    0.0000 H   0  0  0  0  0  0  0  0  0  0  0  0
    0.7145   -0.4125    0.0000 C   0  0  0  0  0  0  0  0  0  0  0  0
   -0.0000    0.0000    0.0000 C   0  0  0  0  0  0  0  0  0  0  0  0
   -0.7145   -0.4125    0.0000 H   0  0  0  0  0  0  0  0  0  0  0  0
   -0.0000    0.8250    0.0000 C   0  0  0  0  0  0  0  0  0  0  0  0
   -0.7145    1.2375    0.0000 H   0  0  0  0  0  0  0  0  0  0  0  0
    0.7145    1.2375    0.0000 C   0  0  0  0  0  0  0  0  0  0  0  0
    0.7145    2.0625    0.0000 H   0  0  0  0  0  0  0  0  0  0  0  0
    1.4289    0.8250    0.0000 C   0  0  0  0  0  0  0  0  0  0  0  0
    2.1434    1.2375    0.0000 C   0  0  0  0  0  0  0  0  0  0  0  0
    2.5559    0.5230    0.0000 H   0  0  0  0  0  0  0  0  0  0  0  0
    2.8579    1.6500    0.0000 H   0  0  0  0  0  0  0  0  0  0  0  0
    1.7309    1.9520    0.0000 H   0  0  0  0  0  0  0  0  0  0  0  0
    1.4289    0.0000    0.0000 C   0  0  0  0  0  0  0  0  0  0  0  0
    2.1434   -0.4125    0.0000 H   0  0  0  0  0  0  0  0  0  0  0  0
    2.1434   -1.2375    0.0000 N   0  0  0  0  0  0  0  0  0  0  0  0
    3.5724    1.2375    0.0000 C   0  0  0  0  0  0  0  0  0  0  0  0
    3.1599    0.5230    0.0000 H   0  0  0  0  0  0  0  0  0  0  0  0
    3.5724    2.0625    0.0000 C   0  0  0  0  0  0  0  0  0  0  0  0
    3.1599    2.7770    0.0000 H   0  0  0  0  0  0  0  0  0  0  0  0
  1  2  1  0  0  0  0
  2  3  1  0  0  0  0
  3  4  4  0  0  0  0
  4  5  1  0  0  0  0
  4  6  4  0  0  0  0
  6  7  1  0  0  0  0
  6  8  4  0  0  0  0
  8  9  1  0  0  0  0
  9 10  1  0  0  0  0
  9 11  1  0  0  0  0
  9 12  1  0  0  0  0
 12 13  1  0  0  0  0
 12 14  1  0  0  0  0
 12 15  1  0  0  0  0
 15 16  1  0  0  0  0
 15 17  1  0  0  0  0
 17 18  4  0  0  0  0
 18 19  4  0  0  0  0
 19 20  1  0  0  0  0
 19 21  4  0  0  0  0
 21 22  1  0  0  0  0
 22 23  2  0  0  0  0
 22 24  1  0  0  0  0
 24 25  1  0  0  0  0
 24 26  1  0  0  0  0
 26 27  1  0  0  0  0
 26 28  1  0  0  0  0
 26 29  1  0  0  0  0
 29 30  1  0  0  0  0
 29 31  1  0  0  0  0
 29 32  1  0  0  0  0
 21 33  4  0  0  0  0
 33 34  1  0  0  0  0
 34 35  1  0  0  0  0
 34 36  1  0  0  0  0
 36 37  4  0  0  0  0
 37 38  1  0  0  0  0
 37 39  4  0  0  0  0
 39 40  1  0  0  0  0
 39 41  4  0  0  0  0
 41 42  1  0  0  0  0
 41 43  4  0  0  0  0
 43 44  1  0  0  0  0
 44 45  1  0  0  0  0
 44 46  1  0  0  0  0
 44 47  1  0  0  0  0
 43 48  4  0  0  0  0
 36 48  4  0  0  0  0
 48 49  1  0  0  0  0
 33 50  4  0  0  0  0
 17 50  4  0  0  0  0
  8 51  4  0  0  0  0
 51 52  1  0  0  0  0
 51 53  4  0  0  0  0
  3 53  4  0  0  0  0
 53 54  1  0  0  0  0
M  END
> <pActivity>
6.420216403383189

$$$$
CHEMBL3739968
  Mrv2316 04152410472D          

 78 80  0  0  0  0            999 V2000
   -0.7226   -0.9396    0.0000 H   0  0  0  0  0  0  0  0  0  0  0  0
   -0.0081   -1.3521    0.0000 O   0  0  0  0  0  0  0  0  0  0  0  0
    0.7064   -0.9396    0.0000 P   0  0  0  0  0  0  0  0  0  0  0  0
    1.1189   -1.6540    0.0000 O   0  0  0  0  0  0  0  0  0  0  0  0
    0.2939   -0.2251    0.0000 O   0  0  0  0  0  0  0  0  0  0  0  0
    0.7064    0.4894    0.0000 H   0  0  0  0  0  0  0  0  0  0  0  0
    1.4208   -0.5271    0.0000 O   0  0  0  0  0  0  0  0  0  0  0  0
    2.1353   -0.9396    0.0000 C   0  0  0  0  0  0  0  0  0  0  0  0
    2.8498   -0.5271    0.0000 C   0  0  0  0  0  0  0  0  0  0  0  0
    2.8498    0.2979    0.0000 H   0  0  0  0  0  0  0  0  0  0  0  0
    3.5642   -0.9396    0.0000 C   0  0  0  0  0  0  0  0  0  0  0  0
    4.2787   -0.5271    0.0000 H   0  0  0  0  0  0  0  0  0  0  0  0
    3.5642   -1.7646    0.0000 C   0  0  0  0  0  0  0  0  0  0  0  0
    4.2787   -2.1771    0.0000 C   0  0  0  0  0  0  0  0  0  0  0  0
    4.2787   -3.0021    0.0000 C   0  0  0  0  0  0  0  0  0  0  0  0
    3.5642   -3.4146    0.0000 H   0  0  0  0  0  0  0  0  0  0  0  0
    4.9932   -3.4146    0.0000 C   0  0  0  0  0  0  0  0  0  0  0  0
    5.7077   -3.0021    0.0000 O   0  0  0  0  0  0  0  0  0  0  0  0
    4.9932   -4.2396    0.0000 N   0  0  0  0  0  0  0  0  0  0  0  0
    4.2787   -4.6521    0.0000 H   0  0  0  0  0  0  0  0  0  0  0  0
    5.7077   -4.6521    0.0000 C   0  0  0  0  0  0  0  0  0  0  0  0
    4.9932   -5.0646    0.0000 H   0  0  0  0  0  0  0  0  0  0  0  0
    5.7077   -5.4771    0.0000 C   0  0  0  0  0  0  0  0  0  0  0  0
    4.9932   -5.8896    0.0000 O   0  0  0  0  0  0  0  0  0  0  0  0
    6.4221   -5.8896    0.0000 N   0  0  0  0  0  0  0  0  0  0  0  0
    7.1758   -5.5540    0.0000 C   0  0  0  0  0  0  0  0  0  0  0  0
    7.9930   -5.4410    0.0000 H   0  0  0  0  0  0  0  0  0  0  0  0
    7.5407   -4.8141    0.0000 H   0  0  0  0  0  0  0  0  0  0  0  0
    7.7278   -6.1671    0.0000 C   0  0  0  0  0  0  0  0  0  0  0  0
    8.2995   -6.7619    0.0000 H   0  0  0  0  0  0  0  0  0  0  0  0
    8.5509   -6.2236    0.0000 H   0  0  0  0  0  0  0  0  0  0  0  0
    7.3153   -6.8816    0.0000 C   0  0  0  0  0  0  0  0  0  0  0  0
    7.2578   -7.7046    0.0000 H   0  0  0  0  0  0  0  0  0  0  0  0
    7.9654   -7.3895    0.0000 H   0  0  0  0  0  0  0  0  0  0  0  0
    6.5084   -6.7101    0.0000 C   0  0  0  0  0  0  0  0  0  0  0  0
    5.7382   -6.4144    0.0000 H   0  0  0  0  0  0  0  0  0  0  0  0
    5.8953   -7.2621    0.0000 C   0  0  0  0  0  0  0  0  0  0  0  0
    5.1107   -7.0072    0.0000 O   0  0  0  0  0  0  0  0  0  0  0  0
    6.0668   -8.0691    0.0000 N   0  0  0  0  0  0  0  0  0  0  0  0
    6.8514   -8.3240    0.0000 H   0  0  0  0  0  0  0  0  0  0  0  0
    5.4537   -8.6211    0.0000 C   0  0  0  0  0  0  0  0  0  0  0  0
    4.8670   -8.0411    0.0000 H   0  0  0  0  0  0  0  0  0  0  0  0
    4.6381   -8.7454    0.0000 H   0  0  0  0  0  0  0  0  0  0  0  0
    5.6252   -9.4281    0.0000 C   0  0  0  0  0  0  0  0  0  0  0  0
    6.2120  -10.0080    0.0000 H   0  0  0  0  0  0  0  0  0  0  0  0
    6.4408   -9.3038    0.0000 H   0  0  0  0  0  0  0  0  0  0  0  0
    5.0121   -9.9801    0.0000 C   0  0  0  0  0  0  0  0  0  0  0  0
    5.1837  -10.7871    0.0000 C   0  0  0  0  0  0  0  0  0  0  0  0
    5.9683  -11.0420    0.0000 H   0  0  0  0  0  0  0  0  0  0  0  0
    4.5706  -11.3391    0.0000 C   0  0  0  0  0  0  0  0  0  0  0  0
    4.7421  -12.1461    0.0000 H   0  0  0  0  0  0  0  0  0  0  0  0
    3.7859  -11.0842    0.0000 C   0  0  0  0  0  0  0  0  0  0  0  0
    3.1729  -11.6362    0.0000 H   0  0  0  0  0  0  0  0  0  0  0  0
    3.6144  -10.2772    0.0000 C   0  0  0  0  0  0  0  0  0  0  0  0
    2.8298  -10.0223    0.0000 H   0  0  0  0  0  0  0  0  0  0  0  0
    4.2275   -9.7252    0.0000 C   0  0  0  0  0  0  0  0  0  0  0  0
    4.0560   -8.9182    0.0000 H   0  0  0  0  0  0  0  0  0  0  0  0
    6.4221   -4.2396    0.0000 C   0  0  0  0  0  0  0  0  0  0  0  0
    6.8346   -4.9540    0.0000 C   0  0  0  0  0  0  0  0  0  0  0  0
    6.0096   -4.9522    0.0000 H   0  0  0  0  0  0  0  0  0  0  0  0
    6.4190   -5.6667    0.0000 H   0  0  0  0  0  0  0  0  0  0  0  0
    7.1754   -4.2027    0.0000 H   0  0  0  0  0  0  0  0  0  0  0  0
    6.0096   -3.5251    0.0000 C   0  0  0  0  0  0  0  0  0  0  0  0
    5.1972   -3.6684    0.0000 H   0  0  0  0  0  0  0  0  0  0  0  0
    5.4793   -4.1571    0.0000 H   0  0  0  0  0  0  0  0  0  0  0  0
    6.7241   -3.1126    0.0000 H   0  0  0  0  0  0  0  0  0  0  0  0
    7.1366   -3.8271    0.0000 C   0  0  0  0  0  0  0  0  0  0  0  0
    7.8279   -4.2774    0.0000 H   0  0  0  0  0  0  0  0  0  0  0  0
    7.9215   -3.5729    0.0000 H   0  0  0  0  0  0  0  0  0  0  0  0
    7.4326   -3.0570    0.0000 H   0  0  0  0  0  0  0  0  0  0  0  0
    4.9932   -1.7646    0.0000 C   0  0  0  0  0  0  0  0  0  0  0  0
    5.4057   -2.4790    0.0000 H   0  0  0  0  0  0  0  0  0  0  0  0
    5.7077   -1.3521    0.0000 H   0  0  0  0  0  0  0  0  0  0  0  0
    4.5807   -1.0501    0.0000 H   0  0  0  0  0  0  0  0  0  0  0  0
    2.8498   -2.1771    0.0000 C   0  0  0  0  0  0  0  0  0  0  0  0
    2.8498   -3.0021    0.0000 H   0  0  0  0  0  0  0  0  0  0  0  0
    2.1353   -1.7646    0.0000 C   0  0  0  0  0  0  0  0  0  0  0  0
    1.4208   -2.1771    0.0000 H   0  0  0  0  0  0  0  0  0  0  0  0
  1  2  1  0  0  0  0
  2  3  1  0  0  0  0
  3  4  2  0  0  0  0
  3  5  1  0  0  0  0
  5  6  1  0  0  0  0
  3  7  1  0  0  0  0
  7  8  1  0  0  0  0
  8  9  4  0  0  0  0
  9 10  1  0  0  0  0
  9 11  4  0  0  0  0
 11 12  1  0  0  0  0
 11 13  4  0  0  0  0
 13 14  1  0  0  0  0
 14 15  2  0  0  0  0
 15 16  1  4  0  0  0
 15 17  1  0  0  0  0
 17 18  2  0  0  0  0
 17 19  1  0  0  0  0
 19 20  1  0  0  0  0
 19 21  1  0  0  0  0
 21 22  1  0  0  0  0
 21 23  1  0  0  0  0
 23 24  2  0  0  0  0
 23 25  1  0  0  0  0
 25 26  1  0  0  0  0
 26 27  1  0  0  0  0
 26 28  1  0  0  0  0
 26 29  1  0  0  0  0
 29 30  1  0  0  0  0
 29 31  1  0  0  0  0
 29 32  1  0  0  0  0
 32 33  1  0  0  0  0
 32 34  1  0  0  0  0
 32 35  1  0  0  0  0
 25 35  1  0  0  0  0
 35 36  1  0  0  0  0
 35 37  1  0  0  0  0
 37 38  2  0  0  0  0
 37 39  1  0  0  0  0
 39 40  1  0  0  0  0
 39 41  1  0  0  0  0
 41 42  1  0  0  0  0
 41 43  1  0  0  0  0
 41 44  1  0  0  0  0
 44 45  1  0  0  0  0
 44 46  1  0  0  0  0
 44 47  1  0  0  0  0
 47 48  4  0  0  0  0
 48 49  1  0  0  0  0
 48 50  4  0  0  0  0
 50 51  1  0  0  0  0
 50 52  4  0  0  0  0
 52 53  1  0  0  0  0
 52 54  4  0  0  0  0
 54 55  1  0  0  0  0
 54 56  4  0  0  0  0
 47 56  4  0  0  0  0
 56 57  1  0  0  0  0
 21 58  1  0  0  0  0
 58 59  1  0  0  0  0
 59 60  1  0  0  0  0
 59 61  1  0  0  0  0
 59 62  1  0  0  0  0
 58 63  1  0  0  0  0
 63 64  1  0  0  0  0
 63 65  1  0  0  0  0
 63 66  1  0  0  0  0
 58 67  1  0  0  0  0
 67 68  1  0  0  0  0
 67 69  1  0  0  0  0
 67 70  1  0  0  0  0
 14 71  1  0  0  0  0
 71 72  1  0  0  0  0
 71 73  1  0  0  0  0
 71 74  1  0  0  0  0
 13 75  4  0  0  0  0
 75 76  1  0  0  0  0
 75 77  4  0  0  0  0
  8 77  4  0  0  0  0
 77 78  1  0  0  0  0
M  END
> <pActivity>
6.602059991327962

$$$$
CHEMBL3739525
  Mrv2316 04152410472D          

 74 75  0  0  0  0            999 V2000
   -3.5724    7.0125    0.0000 H   0  0  0  0  0  0  0  0  0  0  0  0
   -2.8579    6.6000    0.0000 O   0  0  0  0  0  0  0  0  0  0  0  0
   -2.1434    7.0125    0.0000 P   0  0  0  0  0  0  0  0  0  0  0  0
   -1.7309    6.2980    0.0000 O   0  0  0  0  0  0  0  0  0  0  0  0
   -2.5559    7.7270    0.0000 O   0  0  0  0  0  0  0  0  0  0  0  0
   -2.1434    8.4414    0.0000 H   0  0  0  0  0  0  0  0  0  0  0  0
   -1.4289    7.4250    0.0000 O   0  0  0  0  0  0  0  0  0  0  0  0
   -0.7145    7.0125    0.0000 C   0  0  0  0  0  0  0  0  0  0  0  0
    0.0000    7.4250    0.0000 C   0  0  0  0  0  0  0  0  0  0  0  0
    0.0000    8.2500    0.0000 H   0  0  0  0  0  0  0  0  0  0  0  0
    0.7145    7.0125    0.0000 C   0  0  0  0  0  0  0  0  0  0  0  0
    1.4289    7.4250    0.0000 H   0  0  0  0  0  0  0  0  0  0  0  0
    0.7145    6.1875    0.0000 C   0  0  0  0  0  0  0  0  0  0  0  0
    1.4289    5.7750    0.0000 C   0  0  0  0  0  0  0  0  0  0  0  0
    1.4289    4.9500    0.0000 C   0  0  0  0  0  0  0  0  0  0  0  0
    0.7145    4.5375    0.0000 H   0  0  0  0  0  0  0  0  0  0  0  0
    2.1434    4.5375    0.0000 C   0  0  0  0  0  0  0  0  0  0  0  0
    2.8579    4.9500    0.0000 O   0  0  0  0  0  0  0  0  0  0  0  0
    2.1434    3.7125    0.0000 N   0  0  0  0  0  0  0  0  0  0  0  0
    1.4289    3.3000    0.0000 H   0  0  0  0  0  0  0  0  0  0  0  0
    2.8579    3.3000    0.0000 C   0  0  0  0  0  0  0  0  0  0  0  0
    2.1434    2.8875    0.0000 H   0  0  0  0  0  0  0  0  0  0  0  0
    2.8579    2.4750    0.0000 C   0  0  0  0  0  0  0  0  0  0  0  0
    2.1434    2.0625    0.0000 O   0  0  0  0  0  0  0  0  0  0  0  0
    3.5724    2.0625    0.0000 N   0  0  0  0  0  0  0  0  0  0  0  0
    4.3260    2.3981    0.0000 C   0  0  0  0  0  0  0  0  0  0  0  0
    5.1432    2.5111    0.0000 H   0  0  0  0  0  0  0  0  0  0  0  0
    4.6909    3.1380    0.0000 H   0  0  0  0  0  0  0  0  0  0  0  0
    4.8781    1.7850    0.0000 C   0  0  0  0  0  0  0  0  0  0  0  0
    5.4498    1.1902    0.0000 H   0  0  0  0  0  0  0  0  0  0  0  0
    5.7011    1.7285    0.0000 H   0  0  0  0  0  0  0  0  0  0  0  0
    4.4656    1.0705    0.0000 C   0  0  0  0  0  0  0  0  0  0  0  0
    4.4080    0.2475    0.0000 H   0  0  0  0  0  0  0  0  0  0  0  0
    5.1157    0.5626    0.0000 H   0  0  0  0  0  0  0  0  0  0  0  0
    3.6586    1.2420    0.0000 C   0  0  0  0  0  0  0  0  0  0  0  0
    2.8884    1.5377    0.0000 H   0  0  0  0  0  0  0  0  0  0  0  0
    3.0455    0.6900    0.0000 C   0  0  0  0  0  0  0  0  0  0  0  0
    2.2609    0.9449    0.0000 O   0  0  0  0  0  0  0  0  0  0  0  0
    3.2170   -0.1170    0.0000 N   0  0  0  0  0  0  0  0  0  0  0  0
    2.6039   -0.6690    0.0000 C   0  0  0  0  0  0  0  0  0  0  0  0
    2.0172   -0.0891    0.0000 H   0  0  0  0  0  0  0  0  0  0  0  0
    1.7883   -0.7933    0.0000 H   0  0  0  0  0  0  0  0  0  0  0  0
    2.7755   -1.4760    0.0000 C   0  0  0  0  0  0  0  0  0  0  0  0
    1.9685   -1.6475    0.0000 H   0  0  0  0  0  0  0  0  0  0  0  0
    2.9470   -2.2830    0.0000 H   0  0  0  0  0  0  0  0  0  0  0  0
    3.5824   -1.3045    0.0000 H   0  0  0  0  0  0  0  0  0  0  0  0
    4.0016   -0.3719    0.0000 C   0  0  0  0  0  0  0  0  0  0  0  0
    4.8125   -0.5242    0.0000 H   0  0  0  0  0  0  0  0  0  0  0  0
    3.7281    0.4064    0.0000 H   0  0  0  0  0  0  0  0  0  0  0  0
    4.1732   -1.1789    0.0000 C   0  0  0  0  0  0  0  0  0  0  0  0
    3.8300   -1.9291    0.0000 H   0  0  0  0  0  0  0  0  0  0  0  0
    4.5711   -1.9016    0.0000 H   0  0  0  0  0  0  0  0  0  0  0  0
    4.9907   -1.2900    0.0000 H   0  0  0  0  0  0  0  0  0  0  0  0
    3.5724    3.7125    0.0000 C   0  0  0  0  0  0  0  0  0  0  0  0
    3.9849    2.9980    0.0000 C   0  0  0  0  0  0  0  0  0  0  0  0
    3.1599    2.9998    0.0000 H   0  0  0  0  0  0  0  0  0  0  0  0
    3.5692    2.2854    0.0000 H   0  0  0  0  0  0  0  0  0  0  0  0
    4.3256    3.7494    0.0000 H   0  0  0  0  0  0  0  0  0  0  0  0
    3.1599    4.4270    0.0000 C   0  0  0  0  0  0  0  0  0  0  0  0
    2.3474    4.2837    0.0000 H   0  0  0  0  0  0  0  0  0  0  0  0
    2.6296    3.7950    0.0000 H   0  0  0  0  0  0  0  0  0  0  0  0
    3.8743    4.8395    0.0000 H   0  0  0  0  0  0  0  0  0  0  0  0
    4.2868    4.1250    0.0000 C   0  0  0  0  0  0  0  0  0  0  0  0
    4.9781    3.6747    0.0000 H   0  0  0  0  0  0  0  0  0  0  0  0
    5.0717    4.3792    0.0000 H   0  0  0  0  0  0  0  0  0  0  0  0
    4.5828    4.8951    0.0000 H   0  0  0  0  0  0  0  0  0  0  0  0
    2.1434    6.1875    0.0000 C   0  0  0  0  0  0  0  0  0  0  0  0
    2.5559    5.4730    0.0000 H   0  0  0  0  0  0  0  0  0  0  0  0
    2.8579    6.6000    0.0000 H   0  0  0  0  0  0  0  0  0  0  0  0
    1.7309    6.9020    0.0000 H   0  0  0  0  0  0  0  0  0  0  0  0
    0.0000    5.7750    0.0000 C   0  0  0  0  0  0  0  0  0  0  0  0
    0.0000    4.9500    0.0000 H   0  0  0  0  0  0  0  0  0  0  0  0
   -0.7145    6.1875    0.0000 C   0  0  0  0  0  0  0  0  0  0  0  0
   -1.4289    5.7750    0.0000 H   0  0  0  0  0  0  0  0  0  0  0  0
  1  2  1  0  0  0  0
  2  3  1  0  0  0  0
  3  4  2  0  0  0  0
  3  5  1  0  0  0  0
  5  6  1  0  0  0  0
  3  7  1  0  0  0  0
  7  8  1  0  0  0  0
  8  9  4  0  0  0  0
  9 10  1  0  0  0  0
  9 11  4  0  0  0  0
 11 12  1  0  0  0  0
 11 13  4  0  0  0  0
 13 14  1  0  0  0  0
 14 15  2  0  0  0  0
 15 16  1  4  0  0  0
 15 17  1  0  0  0  0
 17 18  2  0  0  0  0
 17 19  1  0  0  0  0
 19 20  1  0  0  0  0
 19 21  1  0  0  0  0
 21 22  1  0  0  0  0
 21 23  1  0  0  0  0
 23 24  2  0  0  0  0
 23 25  1  0  0  0  0
 25 26  1  0  0  0  0
 26 27  1  0  0  0  0
 26 28  1  0  0  0  0
 26 29  1  0  0  0  0
 29 30  1  0  0  0  0
 29 31  1  0  0  0  0
 29 32  1  0  0  0  0
 32 33  1  0  0  0  0
 32 34  1  0  0  0  0
 32 35  1  0  0  0  0
 25 35  1  0  0  0  0
 35 36  1  0  0  0  0
 35 37  1  0  0  0  0
 37 38  2  0  0  0  0
 37 39  1  0  0  0  0
 39 40  1  0  0  0  0
 40 41  1  0  0  0  0
 40 42  1  0  0  0  0
 40 43  1  0  0  0  0
 43 44  1  0  0  0  0
 43 45  1  0  0  0  0
 43 46  1  0  0  0  0
 39 47  1  0  0  0  0
 47 48  1  0  0  0  0
 47 49  1  0  0  0  0
 47 50  1  0  0  0  0
 50 51  1  0  0  0  0
 50 52  1  0  0  0  0
 50 53  1  0  0  0  0
 21 54  1  0  0  0  0
 54 55  1  0  0  0  0
 55 56  1  0  0  0  0
 55 57  1  0  0  0  0
 55 58  1  0  0  0  0
 54 59  1  0  0  0  0
 59 60  1  0  0  0  0
 59 61  1  0  0  0  0
 59 62  1  0  0  0  0
 54 63  1  0  0  0  0
 63 64  1  0  0  0  0
 63 65  1  0  0  0  0
 63 66  1  0  0  0  0
 14 67  1  0  0  0  0
 67 68  1  0  0  0  0
 67 69  1  0  0  0  0
 67 70  1  0  0  0  0
 13 71  4  0  0  0  0
 71 72  1  0  0  0  0
 71 73  4  0  0  0  0
  8 73  4  0  0  0  0
 73 74  1  0  0  0  0
M  END
> <pActivity>
6.420216403383189

$$$$
CHEMBL3741476
  Mrv2316 04152410472D          

 72 74  0  0  0  0            999 V2000
   -0.0081    0.2979    0.0000 H   0  0  0  0  0  0  0  0  0  0  0  0
    0.7064   -0.1146    0.0000 O   0  0  0  0  0  0  0  0  0  0  0  0
    1.4208    0.2979    0.0000 P   0  0  0  0  0  0  0  0  0  0  0  0
    1.8333   -0.4165    0.0000 O   0  0  0  0  0  0  0  0  0  0  0  0
    1.0083    1.0124    0.0000 O   0  0  0  0  0  0  0  0  0  0  0  0
    1.4208    1.7269    0.0000 H   0  0  0  0  0  0  0  0  0  0  0  0
    2.1353    0.7104    0.0000 O   0  0  0  0  0  0  0  0  0  0  0  0
    2.8498    0.2979    0.0000 C   0  0  0  0  0  0  0  0  0  0  0  0
    3.5642    0.7104    0.0000 C   0  0  0  0  0  0  0  0  0  0  0  0
    3.5642    1.5354    0.0000 H   0  0  0  0  0  0  0  0  0  0  0  0
    4.2787    0.2979    0.0000 C   0  0  0  0  0  0  0  0  0  0  0  0
    4.9932    0.7104    0.0000 H   0  0  0  0  0  0  0  0  0  0  0  0
    4.2787   -0.5271    0.0000 C   0  0  0  0  0  0  0  0  0  0  0  0
    4.9932   -0.9396    0.0000 C   0  0  0  0  0  0  0  0  0  0  0  0
    4.9932   -1.7646    0.0000 C   0  0  0  0  0  0  0  0  0  0  0  0
    5.7901   -1.5511    0.0000 H   0  0  0  0  0  0  0  0  0  0  0  0
    4.2787   -2.1771    0.0000 C   0  0  0  0  0  0  0  0  0  0  0  0
    3.5642   -1.7646    0.0000 O   0  0  0  0  0  0  0  0  0  0  0  0
    4.2787   -3.0021    0.0000 N   0  0  0  0  0  0  0  0  0  0  0  0
    3.5642   -3.4146    0.0000 H   0  0  0  0  0  0  0  0  0  0  0  0
    4.9932   -3.4146    0.0000 C   0  0  0  0  0  0  0  0  0  0  0  0
    4.2787   -3.8271    0.0000 H   0  0  0  0  0  0  0  0  0  0  0  0
    4.9932   -4.2396    0.0000 C   0  0  0  0  0  0  0  0  0  0  0  0
    4.2787   -4.6521    0.0000 O   0  0  0  0  0  0  0  0  0  0  0  0
    5.7077   -4.6521    0.0000 N   0  0  0  0  0  0  0  0  0  0  0  0
    6.4613   -4.3165    0.0000 C   0  0  0  0  0  0  0  0  0  0  0  0
    7.2786   -4.2035    0.0000 H   0  0  0  0  0  0  0  0  0  0  0  0
    6.8262   -3.5766    0.0000 H   0  0  0  0  0  0  0  0  0  0  0  0
    7.0134   -4.9296    0.0000 C   0  0  0  0  0  0  0  0  0  0  0  0
    7.5851   -5.5244    0.0000 H   0  0  0  0  0  0  0  0  0  0  0  0
    7.8364   -4.9861    0.0000 H   0  0  0  0  0  0  0  0  0  0  0  0
    6.6009   -5.6441    0.0000 C   0  0  0  0  0  0  0  0  0  0  0  0
    6.5433   -6.4671    0.0000 H   0  0  0  0  0  0  0  0  0  0  0  0
    7.2510   -6.1520    0.0000 H   0  0  0  0  0  0  0  0  0  0  0  0
    5.7939   -5.4726    0.0000 C   0  0  0  0  0  0  0  0  0  0  0  0
    5.0237   -5.1769    0.0000 H   0  0  0  0  0  0  0  0  0  0  0  0
    5.1808   -6.0246    0.0000 C   0  0  0  0  0  0  0  0  0  0  0  0
    4.3717   -6.1855    0.0000 H   0  0  0  0  0  0  0  0  0  0  0  0
    5.3523   -6.8316    0.0000 C   0  0  0  0  0  0  0  0  0  0  0  0
    6.1370   -7.0865    0.0000 H   0  0  0  0  0  0  0  0  0  0  0  0
    4.7392   -7.3836    0.0000 C   0  0  0  0  0  0  0  0  0  0  0  0
    4.9108   -8.1906    0.0000 C   0  0  0  0  0  0  0  0  0  0  0  0
    5.6954   -8.4455    0.0000 H   0  0  0  0  0  0  0  0  0  0  0  0
    4.2977   -8.7426    0.0000 C   0  0  0  0  0  0  0  0  0  0  0  0
    4.4692   -9.5496    0.0000 H   0  0  0  0  0  0  0  0  0  0  0  0
    3.5130   -8.4877    0.0000 C   0  0  0  0  0  0  0  0  0  0  0  0
    2.9000   -9.0397    0.0000 H   0  0  0  0  0  0  0  0  0  0  0  0
    3.3415   -7.6807    0.0000 C   0  0  0  0  0  0  0  0  0  0  0  0
    2.5569   -7.4258    0.0000 H   0  0  0  0  0  0  0  0  0  0  0  0
    3.9546   -7.1287    0.0000 C   0  0  0  0  0  0  0  0  0  0  0  0
    3.7831   -6.3217    0.0000 H   0  0  0  0  0  0  0  0  0  0  0  0
    5.7077   -3.0021    0.0000 C   0  0  0  0  0  0  0  0  0  0  0  0
    6.1202   -3.7165    0.0000 C   0  0  0  0  0  0  0  0  0  0  0  0
    5.2952   -3.7147    0.0000 H   0  0  0  0  0  0  0  0  0  0  0  0
    5.7045   -4.4292    0.0000 H   0  0  0  0  0  0  0  0  0  0  0  0
    6.4609   -2.9652    0.0000 H   0  0  0  0  0  0  0  0  0  0  0  0
    5.2952   -2.2876    0.0000 C   0  0  0  0  0  0  0  0  0  0  0  0
    4.4827   -2.4309    0.0000 H   0  0  0  0  0  0  0  0  0  0  0  0
    4.7649   -2.9196    0.0000 H   0  0  0  0  0  0  0  0  0  0  0  0
    6.1197   -2.3157    0.0000 H   0  0  0  0  0  0  0  0  0  0  0  0
    6.4221   -2.5896    0.0000 C   0  0  0  0  0  0  0  0  0  0  0  0
    7.1463   -2.9848    0.0000 H   0  0  0  0  0  0  0  0  0  0  0  0
    7.1581   -2.2168    0.0000 H   0  0  0  0  0  0  0  0  0  0  0  0
    6.5320   -1.7719    0.0000 H   0  0  0  0  0  0  0  0  0  0  0  0
    5.7077   -0.5271    0.0000 C   0  0  0  0  0  0  0  0  0  0  0  0
    6.1202   -1.2415    0.0000 H   0  0  0  0  0  0  0  0  0  0  0  0
    6.4221   -0.1146    0.0000 H   0  0  0  0  0  0  0  0  0  0  0  0
    5.2952    0.1874    0.0000 H   0  0  0  0  0  0  0  0  0  0  0  0
    3.5642   -0.9396    0.0000 C   0  0  0  0  0  0  0  0  0  0  0  0
    2.8498   -1.3521    0.0000 H   0  0  0  0  0  0  0  0  0  0  0  0
    2.8498   -0.5271    0.0000 C   0  0  0  0  0  0  0  0  0  0  0  0
    2.0248   -0.5271    0.0000 H   0  0  0  0  0  0  0  0  0  0  0  0
  1  2  1  0  0  0  0
  2  3  1  0  0  0  0
  3  4  2  0  0  0  0
  3  5  1  0  0  0  0
  5  6  1  0  0  0  0
  3  7  1  0  0  0  0
  7  8  1  0  0  0  0
  8  9  4  0  0  0  0
  9 10  1  0  0  0  0
  9 11  4  0  0  0  0
 11 12  1  0  0  0  0
 11 13  4  0  0  0  0
 13 14  1  0  0  0  0
 14 15  2  0  0  0  0
 15 16  1  4  0  0  0
 15 17  1  0  0  0  0
 17 18  2  0  0  0  0
 17 19  1  0  0  0  0
 19 20  1  0  0  0  0
 19 21  1  0  0  0  0
 21 22  1  0  0  0  0
 21 23  1  0  0  0  0
 23 24  2  0  0  0  0
 23 25  1  0  0  0  0
 25 26  1  0  0  0  0
 26 27  1  0  0  0  0
 26 28  1  0  0  0  0
 26 29  1  0  0  0  0
 29 30  1  0  0  0  0
 29 31  1  0  0  0  0
 29 32  1  0  0  0  0
 32 33  1  0  0  0  0
 32 34  1  0  0  0  0
 32 35  1  0  0  0  0
 25 35  1  0  0  0  0
 35 36  1  0  0  0  0
 35 37  1  0  0  0  0
 37 38  1  4  0  0  0
 37 39  2  0  0  0  0
 39 40  1  0  0  0  0
 39 41  1  0  0  0  0
 41 42  4  0  0  0  0
 42 43  1  0  0  0  0
 42 44  4  0  0  0  0
 44 45  1  0  0  0  0
 44 46  4  0  0  0  0
 46 47  1  0  0  0  0
 46 48  4  0  0  0  0
 48 49  1  0  0  0  0
 48 50  4  0  0  0  0
 41 50  4  0  0  0  0
 50 51  1  0  0  0  0
 21 52  1  0  0  0  0
 52 53  1  0  0  0  0
 53 54  1  0  0  0  0
 53 55  1  0  0  0  0
 53 56  1  0  0  0  0
 52 57  1  0  0  0  0
 57 58  1  0  0  0  0
 57 59  1  0  0  0  0
 57 60  1  0  0  0  0
 52 61  1  0  0  0  0
 61 62  1  0  0  0  0
 61 63  1  0  0  0  0
 61 64  1  0  0  0  0
 14 65  1  0  0  0  0
 65 66  1  0  0  0  0
 65 67  1  0  0  0  0
 65 68  1  0  0  0  0
 13 69  4  0  0  0  0
 69 70  1  0  0  0  0
 69 71  4  0  0  0  0
  8 71  4  0  0  0  0
 71 72  1  0  0  0  0
M  END
> <pActivity>
5.464705879957228

$$$$
CHEMBL3740610
  Mrv2316 04152410472D          

 78 80  0  0  0  0            999 V2000
   -2.1515   -0.9396    0.0000 H   0  0  0  0  0  0  0  0  0  0  0  0
   -1.4370   -1.3521    0.0000 O   0  0  0  0  0  0  0  0  0  0  0  0
   -0.7226   -0.9396    0.0000 P   0  0  0  0  0  0  0  0  0  0  0  0
   -0.3101   -1.6540    0.0000 O   0  0  0  0  0  0  0  0  0  0  0  0
   -1.1351   -0.2251    0.0000 O   0  0  0  0  0  0  0  0  0  0  0  0
   -0.7226    0.4894    0.0000 H   0  0  0  0  0  0  0  0  0  0  0  0
   -0.0081   -0.5271    0.0000 O   0  0  0  0  0  0  0  0  0  0  0  0
    0.7064   -0.9396    0.0000 C   0  0  0  0  0  0  0  0  0  0  0  0
    1.4208   -0.5271    0.0000 C   0  0  0  0  0  0  0  0  0  0  0  0
    1.4208    0.2979    0.0000 H   0  0  0  0  0  0  0  0  0  0  0  0
    2.1353   -0.9396    0.0000 C   0  0  0  0  0  0  0  0  0  0  0  0
    2.8498   -0.5271    0.0000 H   0  0  0  0  0  0  0  0  0  0  0  0
    2.1353   -1.7646    0.0000 C   0  0  0  0  0  0  0  0  0  0  0  0
    2.8498   -2.1771    0.0000 C   0  0  0  0  0  0  0  0  0  0  0  0
    2.8498   -3.0021    0.0000 C   0  0  0  0  0  0  0  0  0  0  0  0
    2.1353   -3.4146    0.0000 H   0  0  0  0  0  0  0  0  0  0  0  0
    3.5642   -3.4146    0.0000 C   0  0  0  0  0  0  0  0  0  0  0  0
    4.2787   -3.0021    0.0000 O   0  0  0  0  0  0  0  0  0  0  0  0
    3.5642   -4.2396    0.0000 N   0  0  0  0  0  0  0  0  0  0  0  0
    2.8498   -4.6521    0.0000 H   0  0  0  0  0  0  0  0  0  0  0  0
    4.2787   -4.6521    0.0000 C   0  0  0  0  0  0  0  0  0  0  0  0
    3.5642   -5.0646    0.0000 H   0  0  0  0  0  0  0  0  0  0  0  0
    4.2787   -5.4771    0.0000 C   0  0  0  0  0  0  0  0  0  0  0  0
    3.5642   -5.8896    0.0000 O   0  0  0  0  0  0  0  0  0  0  0  0
    4.9932   -5.8896    0.0000 N   0  0  0  0  0  0  0  0  0  0  0  0
    5.7469   -5.5540    0.0000 C   0  0  0  0  0  0  0  0  0  0  0  0
    6.5641   -5.4410    0.0000 H   0  0  0  0  0  0  0  0  0  0  0  0
    6.1118   -4.8141    0.0000 H   0  0  0  0  0  0  0  0  0  0  0  0
    6.2989   -6.1671    0.0000 C   0  0  0  0  0  0  0  0  0  0  0  0
    6.8706   -6.7619    0.0000 H   0  0  0  0  0  0  0  0  0  0  0  0
    7.1220   -6.2236    0.0000 H   0  0  0  0  0  0  0  0  0  0  0  0
    5.8864   -6.8816    0.0000 C   0  0  0  0  0  0  0  0  0  0  0  0
    5.8288   -7.7046    0.0000 H   0  0  0  0  0  0  0  0  0  0  0  0
    6.5365   -7.3895    0.0000 H   0  0  0  0  0  0  0  0  0  0  0  0
    5.0794   -6.7101    0.0000 C   0  0  0  0  0  0  0  0  0  0  0  0
    4.3092   -6.4144    0.0000 H   0  0  0  0  0  0  0  0  0  0  0  0
    4.4663   -7.2621    0.0000 C   0  0  0  0  0  0  0  0  0  0  0  0
    4.6379   -8.0691    0.0000 H   0  0  0  0  0  0  0  0  0  0  0  0
    3.6817   -7.0072    0.0000 C   0  0  0  0  0  0  0  0  0  0  0  0
    3.1224   -6.4007    0.0000 H   0  0  0  0  0  0  0  0  0  0  0  0
    3.0686   -7.5592    0.0000 C   0  0  0  0  0  0  0  0  0  0  0  0
    2.4819   -6.9792    0.0000 H   0  0  0  0  0  0  0  0  0  0  0  0
    2.2530   -7.6835    0.0000 H   0  0  0  0  0  0  0  0  0  0  0  0
    3.2401   -8.3662    0.0000 C   0  0  0  0  0  0  0  0  0  0  0  0
    3.8269   -8.9461    0.0000 H   0  0  0  0  0  0  0  0  0  0  0  0
    4.0557   -8.2418    0.0000 H   0  0  0  0  0  0  0  0  0  0  0  0
    2.6270   -8.9182    0.0000 C   0  0  0  0  0  0  0  0  0  0  0  0
    2.7986   -9.7252    0.0000 C   0  0  0  0  0  0  0  0  0  0  0  0
    3.5832   -9.9801    0.0000 H   0  0  0  0  0  0  0  0  0  0  0  0
    2.1855  -10.2772    0.0000 C   0  0  0  0  0  0  0  0  0  0  0  0
    2.3570  -11.0842    0.0000 H   0  0  0  0  0  0  0  0  0  0  0  0
    1.4009  -10.0223    0.0000 C   0  0  0  0  0  0  0  0  0  0  0  0
    0.7878  -10.5743    0.0000 H   0  0  0  0  0  0  0  0  0  0  0  0
    1.2293   -9.2153    0.0000 C   0  0  0  0  0  0  0  0  0  0  0  0
    0.4447   -8.9603    0.0000 H   0  0  0  0  0  0  0  0  0  0  0  0
    1.8424   -8.6633    0.0000 C   0  0  0  0  0  0  0  0  0  0  0  0
    1.6709   -7.8563    0.0000 H   0  0  0  0  0  0  0  0  0  0  0  0
    4.9932   -4.2396    0.0000 C   0  0  0  0  0  0  0  0  0  0  0  0
    5.4057   -4.9540    0.0000 C   0  0  0  0  0  0  0  0  0  0  0  0
    4.5807   -4.9522    0.0000 H   0  0  0  0  0  0  0  0  0  0  0  0
    4.9901   -5.6667    0.0000 H   0  0  0  0  0  0  0  0  0  0  0  0
    5.7464   -4.2027    0.0000 H   0  0  0  0  0  0  0  0  0  0  0  0
    4.5807   -3.5251    0.0000 C   0  0  0  0  0  0  0  0  0  0  0  0
    3.7682   -3.6684    0.0000 H   0  0  0  0  0  0  0  0  0  0  0  0
    4.0504   -4.1571    0.0000 H   0  0  0  0  0  0  0  0  0  0  0  0
    5.2952   -3.1126    0.0000 H   0  0  0  0  0  0  0  0  0  0  0  0
    5.7077   -3.8271    0.0000 C   0  0  0  0  0  0  0  0  0  0  0  0
    6.3989   -4.2774    0.0000 H   0  0  0  0  0  0  0  0  0  0  0  0
    6.4925   -3.5729    0.0000 H   0  0  0  0  0  0  0  0  0  0  0  0
    6.0037   -3.0570    0.0000 H   0  0  0  0  0  0  0  0  0  0  0  0
    3.5642   -1.7646    0.0000 C   0  0  0  0  0  0  0  0  0  0  0  0
    3.9767   -2.4790    0.0000 H   0  0  0  0  0  0  0  0  0  0  0  0
    4.2787   -1.3521    0.0000 H   0  0  0  0  0  0  0  0  0  0  0  0
    3.1517   -1.0501    0.0000 H   0  0  0  0  0  0  0  0  0  0  0  0
    1.4208   -2.1771    0.0000 C   0  0  0  0  0  0  0  0  0  0  0  0
    1.4208   -3.0021    0.0000 H   0  0  0  0  0  0  0  0  0  0  0  0
    0.7064   -1.7646    0.0000 C   0  0  0  0  0  0  0  0  0  0  0  0
   -0.0081   -2.1771    0.0000 H   0  0  0  0  0  0  0  0  0  0  0  0
  1  2  1  0  0  0  0
  2  3  1  0  0  0  0
  3  4  2  0  0  0  0
  3  5  1  0  0  0  0
  5  6  1  0  0  0  0
  3  7  1  0  0  0  0
  7  8  1  0  0  0  0
  8  9  4  0  0  0  0
  9 10  1  0  0  0  0
  9 11  4  0  0  0  0
 11 12  1  0  0  0  0
 11 13  4  0  0  0  0
 13 14  1  0  0  0  0
 14 15  2  0  0  0  0
 15 16  1  4  0  0  0
 15 17  1  0  0  0  0
 17 18  2  0  0  0  0
 17 19  1  0  0  0  0
 19 20  1  0  0  0  0
 19 21  1  0  0  0  0
 21 22  1  0  0  0  0
 21 23  1  0  0  0  0
 23 24  2  0  0  0  0
 23 25  1  0  0  0  0
 25 26  1  0  0  0  0
 26 27  1  0  0  0  0
 26 28  1  0  0  0  0
 26 29  1  0  0  0  0
 29 30  1  0  0  0  0
 29 31  1  0  0  0  0
 29 32  1  0  0  0  0
 32 33  1  0  0  0  0
 32 34  1  0  0  0  0
 32 35  1  0  0  0  0
 25 35  1  0  0  0  0
 35 36  1  0  0  0  0
 35 37  1  0  0  0  0
 37 38  1  4  0  0  0
 37 39  2  0  0  0  0
 39 40  1  0  0  0  0
 39 41  1  0  0  0  0
 41 42  1  0  0  0  0
 41 43  1  0  0  0  0
 41 44  1  0  0  0  0
 44 45  1  0  0  0  0
 44 46  1  0  0  0  0
 44 47  1  0  0  0  0
 47 48  4  0  0  0  0
 48 49  1  0  0  0  0
 48 50  4  0  0  0  0
 50 51  1  0  0  0  0
 50 52  4  0  0  0  0
 52 53  1  0  0  0  0
 52 54  4  0  0  0  0
 54 55  1  0  0  0  0
 54 56  4  0  0  0  0
 47 56  4  0  0  0  0
 56 57  1  0  0  0  0
 21 58  1  0  0  0  0
 58 59  1  0  0  0  0
 59 60  1  0  0  0  0
 59 61  1  0  0  0  0
 59 62  1  0  0  0  0
 58 63  1  0  0  0  0
 63 64  1  0  0  0  0
 63 65  1  0  0  0  0
 63 66  1  0  0  0  0
 58 67  1  0  0  0  0
 67 68  1  0  0  0  0
 67 69  1  0  0  0  0
 67 70  1  0  0  0  0
 14 71  1  0  0  0  0
 71 72  1  0  0  0  0
 71 73  1  0  0  0  0
 71 74  1  0  0  0  0
 13 75  4  0  0  0  0
 75 76  1  0  0  0  0
 75 77  4  0  0  0  0
  8 77  4  0  0  0  0
 77 78  1  0  0  0  0
M  END
> <pActivity>
6.267606240177031

$$$$
CHEMBL3739599
  Mrv2316 04152410472D          

 80 82  0  0  0  0            999 V2000
   -0.7226   -0.9396    0.0000 H   0  0  0  0  0  0  0  0  0  0  0  0
   -0.0081   -1.3521    0.0000 O   0  0  0  0  0  0  0  0  0  0  0  0
    0.7064   -0.9396    0.0000 P   0  0  0  0  0  0  0  0  0  0  0  0
    1.1189   -1.6540    0.0000 O   0  0  0  0  0  0  0  0  0  0  0  0
    0.2939   -0.2251    0.0000 O   0  0  0  0  0  0  0  0  0  0  0  0
    0.7064    0.4894    0.0000 H   0  0  0  0  0  0  0  0  0  0  0  0
    1.4208   -0.5271    0.0000 O   0  0  0  0  0  0  0  0  0  0  0  0
    2.1353   -0.9396    0.0000 C   0  0  0  0  0  0  0  0  0  0  0  0
    2.8498   -0.5271    0.0000 C   0  0  0  0  0  0  0  0  0  0  0  0
    2.8498    0.2979    0.0000 H   0  0  0  0  0  0  0  0  0  0  0  0
    3.5642   -0.9396    0.0000 C   0  0  0  0  0  0  0  0  0  0  0  0
    4.2787   -0.5271    0.0000 H   0  0  0  0  0  0  0  0  0  0  0  0
    3.5642   -1.7646    0.0000 C   0  0  0  0  0  0  0  0  0  0  0  0
    4.2787   -2.1771    0.0000 C   0  0  0  0  0  0  0  0  0  0  0  0
    4.2787   -3.0021    0.0000 C   0  0  0  0  0  0  0  0  0  0  0  0
    3.5642   -3.4146    0.0000 H   0  0  0  0  0  0  0  0  0  0  0  0
    4.9932   -3.4146    0.0000 C   0  0  0  0  0  0  0  0  0  0  0  0
    5.7077   -3.0021    0.0000 O   0  0  0  0  0  0  0  0  0  0  0  0
    4.9932   -4.2396    0.0000 N   0  0  0  0  0  0  0  0  0  0  0  0
    4.2787   -4.6521    0.0000 H   0  0  0  0  0  0  0  0  0  0  0  0
    5.7077   -4.6521    0.0000 C   0  0  0  0  0  0  0  0  0  0  0  0
    4.9932   -5.0646    0.0000 H   0  0  0  0  0  0  0  0  0  0  0  0
    5.7077   -5.4771    0.0000 C   0  0  0  0  0  0  0  0  0  0  0  0
    4.9932   -5.8896    0.0000 O   0  0  0  0  0  0  0  0  0  0  0  0
    6.4221   -5.8896    0.0000 N   0  0  0  0  0  0  0  0  0  0  0  0
    7.1758   -5.5540    0.0000 C   0  0  0  0  0  0  0  0  0  0  0  0
    7.9930   -5.4410    0.0000 H   0  0  0  0  0  0  0  0  0  0  0  0
    7.5407   -4.8141    0.0000 H   0  0  0  0  0  0  0  0  0  0  0  0
    7.7278   -6.1671    0.0000 C   0  0  0  0  0  0  0  0  0  0  0  0
    8.2995   -6.7619    0.0000 H   0  0  0  0  0  0  0  0  0  0  0  0
    8.5509   -6.2236    0.0000 H   0  0  0  0  0  0  0  0  0  0  0  0
    7.3153   -6.8816    0.0000 C   0  0  0  0  0  0  0  0  0  0  0  0
    7.2578   -7.7046    0.0000 H   0  0  0  0  0  0  0  0  0  0  0  0
    7.9654   -7.3895    0.0000 H   0  0  0  0  0  0  0  0  0  0  0  0
    6.5084   -6.7101    0.0000 C   0  0  0  0  0  0  0  0  0  0  0  0
    5.7382   -6.4144    0.0000 H   0  0  0  0  0  0  0  0  0  0  0  0
    5.8953   -7.2621    0.0000 C   0  0  0  0  0  0  0  0  0  0  0  0
    5.0802   -7.1342    0.0000 H   0  0  0  0  0  0  0  0  0  0  0  0
    5.1912   -7.6921    0.0000 H   0  0  0  0  0  0  0  0  0  0  0  0
    6.0668   -8.0691    0.0000 C   0  0  0  0  0  0  0  0  0  0  0  0
    6.6535   -8.6490    0.0000 H   0  0  0  0  0  0  0  0  0  0  0  0
    6.8824   -7.9447    0.0000 H   0  0  0  0  0  0  0  0  0  0  0  0
    5.4537   -8.6211    0.0000 C   0  0  0  0  0  0  0  0  0  0  0  0
    4.6586   -8.4009    0.0000 H   0  0  0  0  0  0  0  0  0  0  0  0
    4.8529   -9.1865    0.0000 H   0  0  0  0  0  0  0  0  0  0  0  0
    5.6252   -9.4281    0.0000 C   0  0  0  0  0  0  0  0  0  0  0  0
    6.2120  -10.0080    0.0000 H   0  0  0  0  0  0  0  0  0  0  0  0
    6.4408   -9.3038    0.0000 H   0  0  0  0  0  0  0  0  0  0  0  0
    5.0121   -9.9801    0.0000 C   0  0  0  0  0  0  0  0  0  0  0  0
    5.1837  -10.7871    0.0000 C   0  0  0  0  0  0  0  0  0  0  0  0
    5.9683  -11.0420    0.0000 H   0  0  0  0  0  0  0  0  0  0  0  0
    4.5706  -11.3391    0.0000 C   0  0  0  0  0  0  0  0  0  0  0  0
    4.7421  -12.1461    0.0000 H   0  0  0  0  0  0  0  0  0  0  0  0
    3.7859  -11.0842    0.0000 C   0  0  0  0  0  0  0  0  0  0  0  0
    3.1729  -11.6362    0.0000 H   0  0  0  0  0  0  0  0  0  0  0  0
    3.6144  -10.2772    0.0000 C   0  0  0  0  0  0  0  0  0  0  0  0
    2.8298  -10.0223    0.0000 H   0  0  0  0  0  0  0  0  0  0  0  0
    4.2275   -9.7252    0.0000 C   0  0  0  0  0  0  0  0  0  0  0  0
    3.6823   -9.1060    0.0000 H   0  0  0  0  0  0  0  0  0  0  0  0
    6.4221   -4.2396    0.0000 C   0  0  0  0  0  0  0  0  0  0  0  0
    6.8346   -4.9540    0.0000 C   0  0  0  0  0  0  0  0  0  0  0  0
    6.0096   -4.9522    0.0000 H   0  0  0  0  0  0  0  0  0  0  0  0
    6.4190   -5.6667    0.0000 H   0  0  0  0  0  0  0  0  0  0  0  0
    7.1754   -4.2027    0.0000 H   0  0  0  0  0  0  0  0  0  0  0  0
    6.0096   -3.5251    0.0000 C   0  0  0  0  0  0  0  0  0  0  0  0
    5.1972   -3.6684    0.0000 H   0  0  0  0  0  0  0  0  0  0  0  0
    5.4793   -4.1571    0.0000 H   0  0  0  0  0  0  0  0  0  0  0  0
    6.7241   -3.1126    0.0000 H   0  0  0  0  0  0  0  0  0  0  0  0
    7.1366   -3.8271    0.0000 C   0  0  0  0  0  0  0  0  0  0  0  0
    7.8279   -4.2774    0.0000 H   0  0  0  0  0  0  0  0  0  0  0  0
    7.9215   -3.5729    0.0000 H   0  0  0  0  0  0  0  0  0  0  0  0
    7.4326   -3.0570    0.0000 H   0  0  0  0  0  0  0  0  0  0  0  0
    4.9932   -1.7646    0.0000 C   0  0  0  0  0  0  0  0  0  0  0  0
    5.4057   -2.4790    0.0000 H   0  0  0  0  0  0  0  0  0  0  0  0
    5.7077   -1.3521    0.0000 H   0  0  0  0  0  0  0  0  0  0  0  0
    4.5807   -1.0501    0.0000 H   0  0  0  0  0  0  0  0  0  0  0  0
    2.8498   -2.1771    0.0000 C   0  0  0  0  0  0  0  0  0  0  0  0
    2.8498   -3.0021    0.0000 H   0  0  0  0  0  0  0  0  0  0  0  0
    2.1353   -1.7646    0.0000 C   0  0  0  0  0  0  0  0  0  0  0  0
    1.4208   -2.1771    0.0000 H   0  0  0  0  0  0  0  0  0  0  0  0
  1  2  1  0  0  0  0
  2  3  1  0  0  0  0
  3  4  2  0  0  0  0
  3  5  1  0  0  0  0
  5  6  1  0  0  0  0
  3  7  1  0  0  0  0
  7  8  1  0  0  0  0
  8  9  4  0  0  0  0
  9 10  1  0  0  0  0
  9 11  4  0  0  0  0
 11 12  1  0  0  0  0
 11 13  4  0  0  0  0
 13 14  1  0  0  0  0
 14 15  2  0  0  0  0
 15 16  1  4  0  0  0
 15 17  1  0  0  0  0
 17 18  2  0  0  0  0
 17 19  1  0  0  0  0
 19 20  1  0  0  0  0
 19 21  1  0  0  0  0
 21 22  1  0  0  0  0
 21 23  1  0  0  0  0
 23 24  2  0  0  0  0
 23 25  1  0  0  0  0
 25 26  1  0  0  0  0
 26 27  1  0  0  0  0
 26 28  1  0  0  0  0
 26 29  1  0  0  0  0
 29 30  1  0  0  0  0
 29 31  1  0  0  0  0
 29 32  1  0  0  0  0
 32 33  1  0  0  0  0
 32 34  1  0  0  0  0
 32 35  1  0  0  0  0
 25 35  1  0  0  0  0
 35 36  1  0  0  0  0
 35 37  1  0  0  0  0
 37 38  1  0  0  0  0
 37 39  1  0  0  0  0
 37 40  1  0  0  0  0
 40 41  1  0  0  0  0
 40 42  1  0  0  0  0
 40 43  1  0  0  0  0
 43 44  1  0  0  0  0
 43 45  1  0  0  0  0
 43 46  1  0  0  0  0
 46 47  1  0  0  0  0
 46 48  1  0  0  0  0
 46 49  1  0  0  0  0
 49 50  4  0  0  0  0
 50 51  1  0  0  0  0
 50 52  4  0  0  0  0
 52 53  1  0  0  0  0
 52 54  4  0  0  0  0
 54 55  1  0  0  0  0
 54 56  4  0  0  0  0
 56 57  1  0  0  0  0
 56 58  4  0  0  0  0
 49 58  4  0  0  0  0
 58 59  1  0  0  0  0
 21 60  1  0  0  0  0
 60 61  1  0  0  0  0
 61 62  1  0  0  0  0
 61 63  1  0  0  0  0
 61 64  1  0  0  0  0
 60 65  1  0  0  0  0
 65 66  1  0  0  0  0
 65 67  1  0  0  0  0
 65 68  1  0  0  0  0
 60 69  1  0  0  0  0
 69 70  1  0  0  0  0
 69 71  1  0  0  0  0
 69 72  1  0  0  0  0
 14 73  1  0  0  0  0
 73 74  1  0  0  0  0
 73 75  1  0  0  0  0
 73 76  1  0  0  0  0
 13 77  4  0  0  0  0
 77 78  1  0  0  0  0
 77 79  4  0  0  0  0
  8 79  4  0  0  0  0
 79 80  1  0  0  0  0
M  END
> <pActivity>
5.970616222314789

$$$$
CHEMBL3742269
  Mrv2316 04152410472D          

 76 78  0  0  0  0            999 V2000
   -8.3116   -0.1419    0.0000 H   0  0  0  0  0  0  0  0  0  0  0  0
   -7.5971   -0.5544    0.0000 O   0  0  0  0  0  0  0  0  0  0  0  0
   -6.8826   -0.1419    0.0000 P   0  0  0  0  0  0  0  0  0  0  0  0
   -6.4701   -0.8564    0.0000 O   0  0  0  0  0  0  0  0  0  0  0  0
   -7.2951    0.5725    0.0000 O   0  0  0  0  0  0  0  0  0  0  0  0
   -6.8826    1.2870    0.0000 H   0  0  0  0  0  0  0  0  0  0  0  0
   -6.1682    0.2706    0.0000 O   0  0  0  0  0  0  0  0  0  0  0  0
   -5.4537   -0.1419    0.0000 C   0  0  0  0  0  0  0  0  0  0  0  0
   -4.7392    0.2706    0.0000 C   0  0  0  0  0  0  0  0  0  0  0  0
   -4.7392    1.0956    0.0000 H   0  0  0  0  0  0  0  0  0  0  0  0
   -4.0248   -0.1419    0.0000 C   0  0  0  0  0  0  0  0  0  0  0  0
   -3.3103    0.2706    0.0000 H   0  0  0  0  0  0  0  0  0  0  0  0
   -4.0248   -0.9669    0.0000 C   0  0  0  0  0  0  0  0  0  0  0  0
   -3.3103   -1.3794    0.0000 C   0  0  0  0  0  0  0  0  0  0  0  0
   -3.3103   -2.2044    0.0000 C   0  0  0  0  0  0  0  0  0  0  0  0
   -4.0248   -2.6169    0.0000 H   0  0  0  0  0  0  0  0  0  0  0  0
   -2.5958   -2.6169    0.0000 C   0  0  0  0  0  0  0  0  0  0  0  0
   -1.8814   -2.2044    0.0000 O   0  0  0  0  0  0  0  0  0  0  0  0
   -2.5958   -3.4419    0.0000 N   0  0  0  0  0  0  0  0  0  0  0  0
   -3.3103   -3.8544    0.0000 H   0  0  0  0  0  0  0  0  0  0  0  0
   -1.8814   -3.8544    0.0000 C   0  0  0  0  0  0  0  0  0  0  0  0
   -2.5958   -4.2669    0.0000 H   0  0  0  0  0  0  0  0  0  0  0  0
   -1.8814   -4.6794    0.0000 C   0  0  0  0  0  0  0  0  0  0  0  0
   -2.5958   -5.0919    0.0000 O   0  0  0  0  0  0  0  0  0  0  0  0
   -1.1669   -5.0919    0.0000 N   0  0  0  0  0  0  0  0  0  0  0  0
   -0.4132   -4.7564    0.0000 C   0  0  0  0  0  0  0  0  0  0  0  0
    0.4040   -4.6433    0.0000 H   0  0  0  0  0  0  0  0  0  0  0  0
   -0.0483   -4.0165    0.0000 H   0  0  0  0  0  0  0  0  0  0  0  0
    0.1388   -5.3695    0.0000 C   0  0  0  0  0  0  0  0  0  0  0  0
    0.7105   -5.9643    0.0000 H   0  0  0  0  0  0  0  0  0  0  0  0
    0.9619   -5.4260    0.0000 H   0  0  0  0  0  0  0  0  0  0  0  0
   -0.2737   -6.0839    0.0000 C   0  0  0  0  0  0  0  0  0  0  0  0
    0.5382   -6.2307    0.0000 H   0  0  0  0  0  0  0  0  0  0  0  0
   -0.8696   -6.6545    0.0000 H   0  0  0  0  0  0  0  0  0  0  0  0
   -1.0806   -5.9124    0.0000 C   0  0  0  0  0  0  0  0  0  0  0  0
   -1.8508   -5.6168    0.0000 H   0  0  0  0  0  0  0  0  0  0  0  0
   -1.6937   -6.4645    0.0000 C   0  0  0  0  0  0  0  0  0  0  0  0
   -2.5088   -6.3366    0.0000 H   0  0  0  0  0  0  0  0  0  0  0  0
   -2.3978   -6.8945    0.0000 H   0  0  0  0  0  0  0  0  0  0  0  0
   -1.5222   -7.2714    0.0000 N   0  0  0  0  0  0  0  0  0  0  0  0
   -0.7376   -7.5264    0.0000 C   0  0  0  0  0  0  0  0  0  0  0  0
   -0.1245   -6.9743    0.0000 C   0  0  0  0  0  0  0  0  0  0  0  0
    0.0470   -7.7813    0.0000 H   0  0  0  0  0  0  0  0  0  0  0  0
    0.6601   -7.2293    0.0000 C   0  0  0  0  0  0  0  0  0  0  0  0
    1.2732   -6.6772    0.0000 H   0  0  0  0  0  0  0  0  0  0  0  0
    0.8317   -8.0362    0.0000 C   0  0  0  0  0  0  0  0  0  0  0  0
    1.6163   -8.2912    0.0000 H   0  0  0  0  0  0  0  0  0  0  0  0
    0.2186   -8.5883    0.0000 C   0  0  0  0  0  0  0  0  0  0  0  0
    0.3901   -9.3952    0.0000 H   0  0  0  0  0  0  0  0  0  0  0  0
   -0.5661   -8.3333    0.0000 C   0  0  0  0  0  0  0  0  0  0  0  0
   -1.1792   -8.8854    0.0000 H   0  0  0  0  0  0  0  0  0  0  0  0
   -2.1353   -7.8235    0.0000 C   0  0  0  0  0  0  0  0  0  0  0  0
   -2.9603   -7.8211    0.0000 H   0  0  0  0  0  0  0  0  0  0  0  0
   -2.3642   -8.6161    0.0000 H   0  0  0  0  0  0  0  0  0  0  0  0
   -1.4361   -8.2613    0.0000 H   0  0  0  0  0  0  0  0  0  0  0  0
   -1.1669   -3.4419    0.0000 C   0  0  0  0  0  0  0  0  0  0  0  0
   -0.7544   -4.1564    0.0000 C   0  0  0  0  0  0  0  0  0  0  0  0
   -1.5794   -4.1546    0.0000 H   0  0  0  0  0  0  0  0  0  0  0  0
   -1.1700   -4.8691    0.0000 H   0  0  0  0  0  0  0  0  0  0  0  0
   -0.4136   -3.4051    0.0000 H   0  0  0  0  0  0  0  0  0  0  0  0
   -1.5794   -2.7275    0.0000 C   0  0  0  0  0  0  0  0  0  0  0  0
   -2.3918   -2.8707    0.0000 H   0  0  0  0  0  0  0  0  0  0  0  0
   -2.1097   -3.3595    0.0000 H   0  0  0  0  0  0  0  0  0  0  0  0
   -0.8649   -2.3150    0.0000 H   0  0  0  0  0  0  0  0  0  0  0  0
   -0.4524   -3.0294    0.0000 C   0  0  0  0  0  0  0  0  0  0  0  0
    0.2389   -3.4797    0.0000 H   0  0  0  0  0  0  0  0  0  0  0  0
    0.3325   -2.7752    0.0000 H   0  0  0  0  0  0  0  0  0  0  0  0
   -0.1564   -2.2594    0.0000 H   0  0  0  0  0  0  0  0  0  0  0  0
   -2.5958   -0.9669    0.0000 C   0  0  0  0  0  0  0  0  0  0  0  0
   -2.1833   -1.6814    0.0000 H   0  0  0  0  0  0  0  0  0  0  0  0
   -1.8814   -0.5544    0.0000 H   0  0  0  0  0  0  0  0  0  0  0  0
   -3.0083   -0.2525    0.0000 H   0  0  0  0  0  0  0  0  0  0  0  0
   -4.7392   -1.3794    0.0000 C   0  0  0  0  0  0  0  0  0  0  0  0
   -4.7392   -2.2044    0.0000 H   0  0  0  0  0  0  0  0  0  0  0  0
   -5.4537   -0.9669    0.0000 C   0  0  0  0  0  0  0  0  0  0  0  0
   -6.1682   -1.3794    0.0000 H   0  0  0  0  0  0  0  0  0  0  0  0
  1  2  1  0  0  0  0
  2  3  1  0  0  0  0
  3  4  2  0  0  0  0
  3  5  1  0  0  0  0
  5  6  1  0  0  0  0
  3  7  1  0  0  0  0
  7  8  1  0  0  0  0
  8  9  4  0  0  0  0
  9 10  1  0  0  0  0
  9 11  4  0  0  0  0
 11 12  1  0  0  0  0
 11 13  4  0  0  0  0
 13 14  1  0  0  0  0
 14 15  2  0  0  0  0
 15 16  1  4  0  0  0
 15 17  1  0  0  0  0
 17 18  2  0  0  0  0
 17 19  1  0  0  0  0
 19 20  1  0  0  0  0
 19 21  1  0  0  0  0
 21 22  1  0  0  0  0
 21 23  1  0  0  0  0
 23 24  2  0  0  0  0
 23 25  1  0  0  0  0
 25 26  1  0  0  0  0
 26 27  1  0  0  0  0
 26 28  1  0  0  0  0
 26 29  1  0  0  0  0
 29 30  1  0  0  0  0
 29 31  1  0  0  0  0
 29 32  1  0  0  0  0
 32 33  1  0  0  0  0
 32 34  1  0  0  0  0
 32 35  1  0  0  0  0
 25 35  1  0  0  0  0
 35 36  1  0  0  0  0
 35 37  1  0  0  0  0
 37 38  1  0  0  0  0
 37 39  1  0  0  0  0
 37 40  1  0  0  0  0
 40 41  1  0  0  0  0
 41 42  4  0  0  0  0
 42 43  1  0  0  0  0
 42 44  4  0  0  0  0
 44 45  1  0  0  0  0
 44 46  4  0  0  0  0
 46 47  1  0  0  0  0
 46 48  4  0  0  0  0
 48 49  1  0  0  0  0
 48 50  4  0  0  0  0
 41 50  4  0  0  0  0
 50 51  1  0  0  0  0
 40 52  1  0  0  0  0
 52 53  1  0  0  0  0
 52 54  1  0  0  0  0
 52 55  1  0  0  0  0
 21 56  1  0  0  0  0
 56 57  1  0  0  0  0
 57 58  1  0  0  0  0
 57 59  1  0  0  0  0
 57 60  1  0  0  0  0
 56 61  1  0  0  0  0
 61 62  1  0  0  0  0
 61 63  1  0  0  0  0
 61 64  1  0  0  0  0
 56 65  1  0  0  0  0
 65 66  1  0  0  0  0
 65 67  1  0  0  0  0
 65 68  1  0  0  0  0
 14 69  1  0  0  0  0
 69 70  1  0  0  0  0
 69 71  1  0  0  0  0
 69 72  1  0  0  0  0
 13 73  4  0  0  0  0
 73 74  1  0  0  0  0
 73 75  4  0  0  0  0
  8 75  4  0  0  0  0
 75 76  1  0  0  0  0
M  END
> <pActivity>
6.3872161432802645

$$$$
CHEMBL3741243
  Mrv2316 04152410472D          

 71 72  0  0  0  0            999 V2000
   -2.1434   -9.4875    0.0000 H   0  0  0  0  0  0  0  0  0  0  0  0
   -1.4289   -9.0750    0.0000 O   0  0  0  0  0  0  0  0  0  0  0  0
   -1.4289   -8.2500    0.0000 P   0  0  0  0  0  0  0  0  0  0  0  0
   -0.6039   -8.2500    0.0000 O   0  0  0  0  0  0  0  0  0  0  0  0
   -2.2539   -8.2500    0.0000 O   0  0  0  0  0  0  0  0  0  0  0  0
   -2.6664   -7.5355    0.0000 H   0  0  0  0  0  0  0  0  0  0  0  0
   -1.4289   -7.4250    0.0000 O   0  0  0  0  0  0  0  0  0  0  0  0
   -0.7145   -7.0125    0.0000 C   0  0  0  0  0  0  0  0  0  0  0  0
   -0.7145   -6.1875    0.0000 C   0  0  0  0  0  0  0  0  0  0  0  0
   -1.4289   -5.7750    0.0000 H   0  0  0  0  0  0  0  0  0  0  0  0
    0.0000   -5.7750    0.0000 C   0  0  0  0  0  0  0  0  0  0  0  0
    0.0000   -4.9500    0.0000 H   0  0  0  0  0  0  0  0  0  0  0  0
    0.7145   -6.1875    0.0000 C   0  0  0  0  0  0  0  0  0  0  0  0
    1.4289   -5.7750    0.0000 C   0  0  0  0  0  0  0  0  0  0  0  0
    2.1434   -6.1875    0.0000 C   0  0  0  0  0  0  0  0  0  0  0  0
    2.1434   -7.0125    0.0000 H   0  0  0  0  0  0  0  0  0  0  0  0
    2.8579   -5.7750    0.0000 C   0  0  0  0  0  0  0  0  0  0  0  0
    3.5724   -6.1875    0.0000 O   0  0  0  0  0  0  0  0  0  0  0  0
    2.8579   -4.9500    0.0000 N   0  0  0  0  0  0  0  0  0  0  0  0
    2.1434   -4.5375    0.0000 H   0  0  0  0  0  0  0  0  0  0  0  0
    3.5724   -4.5375    0.0000 C   0  0  0  0  0  0  0  0  0  0  0  0
    2.8579   -4.1250    0.0000 H   0  0  0  0  0  0  0  0  0  0  0  0
    3.5724   -3.7125    0.0000 C   0  0  0  0  0  0  0  0  0  0  0  0
    2.8579   -3.3000    0.0000 O   0  0  0  0  0  0  0  0  0  0  0  0
    4.2868   -3.3000    0.0000 N   0  0  0  0  0  0  0  0  0  0  0  0
    5.0013   -3.7125    0.0000 C   0  0  0  0  0  0  0  0  0  0  0  0
    5.5035   -4.3670    0.0000 H   0  0  0  0  0  0  0  0  0  0  0  0
    5.7982   -3.4990    0.0000 H   0  0  0  0  0  0  0  0  0  0  0  0
    5.1090   -2.8946    0.0000 H   0  0  0  0  0  0  0  0  0  0  0  0
    4.2868   -2.4750    0.0000 C   0  0  0  0  0  0  0  0  0  0  0  0
    3.8335   -1.7857    0.0000 H   0  0  0  0  0  0  0  0  0  0  0  0
    3.4632   -2.4270    0.0000 H   0  0  0  0  0  0  0  0  0  0  0  0
    5.0013   -2.0625    0.0000 C   0  0  0  0  0  0  0  0  0  0  0  0
    5.7158   -2.4750    0.0000 O   0  0  0  0  0  0  0  0  0  0  0  0
    5.0013   -1.2375    0.0000 N   0  0  0  0  0  0  0  0  0  0  0  0
    5.7158   -0.8250    0.0000 C   0  0  0  0  0  0  0  0  0  0  0  0
    5.7158    0.0000    0.0000 C   0  0  0  0  0  0  0  0  0  0  0  0
    5.0013    0.4125    0.0000 H   0  0  0  0  0  0  0  0  0  0  0  0
    6.4302    0.4125    0.0000 C   0  0  0  0  0  0  0  0  0  0  0  0
    6.4302    1.2375    0.0000 H   0  0  0  0  0  0  0  0  0  0  0  0
    7.1447    0.0000    0.0000 C   0  0  0  0  0  0  0  0  0  0  0  0
    7.8592    0.4125    0.0000 H   0  0  0  0  0  0  0  0  0  0  0  0
    7.1447   -0.8250    0.0000 C   0  0  0  0  0  0  0  0  0  0  0  0
    7.8592   -1.2375    0.0000 H   0  0  0  0  0  0  0  0  0  0  0  0
    6.4302   -1.2375    0.0000 C   0  0  0  0  0  0  0  0  0  0  0  0
    6.4302   -2.0625    0.0000 H   0  0  0  0  0  0  0  0  0  0  0  0
    4.2868   -0.8250    0.0000 C   0  0  0  0  0  0  0  0  0  0  0  0
    4.6993   -0.1105    0.0000 H   0  0  0  0  0  0  0  0  0  0  0  0
    3.5724   -0.4125    0.0000 H   0  0  0  0  0  0  0  0  0  0  0  0
    3.8743   -1.5395    0.0000 H   0  0  0  0  0  0  0  0  0  0  0  0
    4.2868   -4.9500    0.0000 C   0  0  0  0  0  0  0  0  0  0  0  0
    3.8743   -5.6645    0.0000 C   0  0  0  0  0  0  0  0  0  0  0  0
    3.3440   -5.0325    0.0000 H   0  0  0  0  0  0  0  0  0  0  0  0
    3.0619   -5.5212    0.0000 H   0  0  0  0  0  0  0  0  0  0  0  0
    4.5888   -6.0770    0.0000 H   0  0  0  0  0  0  0  0  0  0  0  0
    4.6993   -4.2355    0.0000 C   0  0  0  0  0  0  0  0  0  0  0  0
    4.1690   -3.6035    0.0000 H   0  0  0  0  0  0  0  0  0  0  0  0
    3.8869   -4.0923    0.0000 H   0  0  0  0  0  0  0  0  0  0  0  0
    5.0526   -4.9810    0.0000 H   0  0  0  0  0  0  0  0  0  0  0  0
    5.0013   -5.3625    0.0000 C   0  0  0  0  0  0  0  0  0  0  0  0
    5.2913   -6.1348    0.0000 H   0  0  0  0  0  0  0  0  0  0  0  0
    5.7821   -5.6288    0.0000 H   0  0  0  0  0  0  0  0  0  0  0  0
    5.7028   -4.9284    0.0000 H   0  0  0  0  0  0  0  0  0  0  0  0
    1.4289   -4.9500    0.0000 C   0  0  0  0  0  0  0  0  0  0  0  0
    1.4289   -4.1250    0.0000 H   0  0  0  0  0  0  0  0  0  0  0  0
    0.7145   -4.5375    0.0000 H   0  0  0  0  0  0  0  0  0  0  0  0
    0.7145   -5.3625    0.0000 H   0  0  0  0  0  0  0  0  0  0  0  0
    0.7145   -7.0125    0.0000 C   0  0  0  0  0  0  0  0  0  0  0  0
    1.4289   -7.4250    0.0000 H   0  0  0  0  0  0  0  0  0  0  0  0
    0.0000   -7.4250    0.0000 C   0  0  0  0  0  0  0  0  0  0  0  0
    0.0000   -8.2500    0.0000 H   0  0  0  0  0  0  0  0  0  0  0  0
  1  2  1  0  0  0  0
  2  3  1  0  0  0  0
  3  4  2  0  0  0  0
  3  5  1  0  0  0  0
  5  6  1  0  0  0  0
  3  7  1  0  0  0  0
  7  8  1  0  0  0  0
  8  9  4  0  0  0  0
  9 10  1  0  0  0  0
  9 11  4  0  0  0  0
 11 12  1  0  0  0  0
 11 13  4  0  0  0  0
 13 14  1  0  0  0  0
 14 15  2  0  0  0  0
 15 16  1  4  0  0  0
 15 17  1  0  0  0  0
 17 18  2  0  0  0  0
 17 19  1  0  0  0  0
 19 20  1  0  0  0  0
 19 21  1  0  0  0  0
 21 22  1  0  0  0  0
 21 23  1  0  0  0  0
 23 24  2  0  0  0  0
 23 25  1  0  0  0  0
 25 26  1  0  0  0  0
 26 27  1  0  0  0  0
 26 28  1  0  0  0  0
 26 29  1  0  0  0  0
 25 30  1  0  0  0  0
 30 31  1  0  0  0  0
 30 32  1  0  0  0  0
 30 33  1  0  0  0  0
 33 34  2  0  0  0  0
 33 35  1  0  0  0  0
 35 36  1  0  0  0  0
 36 37  4  0  0  0  0
 37 38  1  0  0  0  0
 37 39  4  0  0  0  0
 39 40  1  0  0  0  0
 39 41  4  0  0  0  0
 41 42  1  0  0  0  0
 41 43  4  0  0  0  0
 43 44  1  0  0  0  0
 43 45  4  0  0  0  0
 36 45  4  0  0  0  0
 45 46  1  0  0  0  0
 35 47  1  0  0  0  0
 47 48  1  0  0  0  0
 47 49  1  0  0  0  0
 47 50  1  0  0  0  0
 21 51  1  0  0  0  0
 51 52  1  0  0  0  0
 52 53  1  0  0  0  0
 52 54  1  0  0  0  0
 52 55  1  0  0  0  0
 51 56  1  0  0  0  0
 56 57  1  0  0  0  0
 56 58  1  0  0  0  0
 56 59  1  0  0  0  0
 51 60  1  0  0  0  0
 60 61  1  0  0  0  0
 60 62  1  0  0  0  0
 60 63  1  0  0  0  0
 14 64  1  0  0  0  0
 64 65  1  0  0  0  0
 64 66  1  0  0  0  0
 64 67  1  0  0  0  0
 13 68  4  0  0  0  0
 68 69  1  0  0  0  0
 68 70  4  0  0  0  0
  8 70  4  0  0  0  0
 70 71  1  0  0  0  0
M  END
> <pActivity>
6.568636235841012

$$$$
