CHEMBL289356
  Mrv2010 08032110442D          

 20 21  0  0  0  0            999 V2000
    1.5208    1.0226    0.0000 S   0  0  0  0  0  0  0  0  0  0  0  0
    1.5208    0.1976    0.0000 C   0  0  0  0  0  0  0  0  0  0  0  0
    2.1882   -0.2873    0.0000 N   0  0  0  0  0  0  0  0  0  0  0  0
    1.9333   -1.0719    0.0000 N   0  0  0  0  0  0  0  0  0  0  0  0
    1.1083   -1.0719    0.0000 C   0  0  0  0  0  0  0  0  0  0  0  0
    0.6234   -1.7394    0.0000 N   0  0  0  0  0  0  0  0  0  0  0  0
   -0.1971   -1.6531    0.0000 C   0  0  0  0  0  0  0  0  0  0  0  0
   -0.6820   -2.3206    0.0000 C   0  0  0  0  0  0  0  0  0  0  0  0
   -1.5025   -2.2343    0.0000 C   0  0  0  0  0  0  0  0  0  0  0  0
   -1.8381   -1.4807    0.0000 C   0  0  0  0  0  0  0  0  0  0  0  0
   -1.3532   -0.8132    0.0000 C   0  0  0  0  0  0  0  0  0  0  0  0
   -0.5327   -0.8995    0.0000 C   0  0  0  0  0  0  0  0  0  0  0  0
    0.8533   -0.2873    0.0000 S   0  0  0  0  0  0  0  0  0  0  0  0
   -0.3465   -3.0742    0.0000 H   0  0  0  0  0  0  0  0  0  0  0  0
   -1.6887   -0.0595    0.0000 H   0  0  0  0  0  0  0  0  0  0  0  0
   -0.0478   -0.2320    0.0000 H   0  0  0  0  0  0  0  0  0  0  0  0
   -2.6586   -1.3944    0.0000 H   0  0  0  0  0  0  0  0  0  0  0  0
    2.9728   -0.0324    0.0000 H   0  0  0  0  0  0  0  0  0  0  0  0
    0.9589   -2.4930    0.0000 H   0  0  0  0  0  0  0  0  0  0  0  0
   -1.9874   -2.9018    0.0000 H   0  0  0  0  0  0  0  0  0  0  0  0
  1  2  2  0  0  0  0
  2  3  1  0  0  0  0
  2 13  1  0  0  0  0
  3  4  1  0  0  0  0
  4  5  2  0  0  0  0
  5  6  1  0  0  0  0
  5 13  1  0  0  0  0
  6  7  1  0  0  0  0
  7  8  4  0  0  0  0
  7 12  4  0  0  0  0
  8  9  4  0  0  0  0
  9 10  4  0  0  0  0
 10 11  4  0  0  0  0
 11 12  4  0  0  0  0
  8 14  1  0  0  0  0
 11 15  1  0  0  0  0
 12 16  1  0  0  0  0
 10 17  1  0  0  0  0
  3 18  1  0  0  0  0
  6 19  1  0  0  0  0
  9 20  1  0  0  0  0
M  END
> <Molecule ChEMBL ID>
CHEMBL289356

> <Class(50)>
1

> <Class(80)>
1

>  <salt>
false

>  <StandardizerResult>
Tautomerize (ID: Tautomerize)
Neutralize (ID: Neutralize)
Aromatize (ID: Aromatize)
Wedge Clean (ID: Wedge Clean)
Clean 2D (ID: Clean2D)

$$$$
CHEMBL111654
  Mrv2010 08032110442D          

 15 16  0  0  0  0            999 V2000
   -2.2664   -0.5427    0.0000 S   0  0  0  0  0  0  0  0  0  0  0  0
   -1.4414   -0.5427    0.0000 C   0  0  0  0  0  0  0  0  0  0  0  0
   -0.9564    0.1248    0.0000 N   0  0  0  0  0  0  0  0  0  0  0  0
   -0.1718   -0.1302    0.0000 C   0  0  0  0  0  0  0  0  0  0  0  0
    0.5426    0.2823    0.0000 C   0  0  0  0  0  0  0  0  0  0  0  0
    1.2571   -0.1302    0.0000 C   0  0  0  0  0  0  0  0  0  0  0  0
    1.2571   -0.9552    0.0000 C   0  0  0  0  0  0  0  0  0  0  0  0
    0.5426   -1.3677    0.0000 C   0  0  0  0  0  0  0  0  0  0  0  0
   -0.1718   -0.9552    0.0000 C   0  0  0  0  0  0  0  0  0  0  0  0
   -0.9564   -1.2101    0.0000 S   0  0  0  0  0  0  0  0  0  0  0  0
    0.5426    1.1073    0.0000 H   0  0  0  0  0  0  0  0  0  0  0  0
   -1.2114    0.9094    0.0000 H   0  0  0  0  0  0  0  0  0  0  0  0
    1.9716   -1.3677    0.0000 H   0  0  0  0  0  0  0  0  0  0  0  0
    0.5426   -2.1927    0.0000 H   0  0  0  0  0  0  0  0  0  0  0  0
    1.9716    0.2823    0.0000 H   0  0  0  0  0  0  0  0  0  0  0  0
  1  2  2  0  0  0  0
  2  3  1  0  0  0  0
  2 10  1  0  0  0  0
  3  4  1  0  0  0  0
  4  5  4  0  0  0  0
  4  9  4  0  0  0  0
  5  6  4  0  0  0  0
  6  7  4  0  0  0  0
  7  8  4  0  0  0  0
  8  9  4  0  0  0  0
  9 10  1  0  0  0  0
  5 11  1  0  0  0  0
  3 12  1  0  0  0  0
  7 13  1  0  0  0  0
  8 14  1  0  0  0  0
  6 15  1  0  0  0  0
M  END
> <Molecule ChEMBL ID>
CHEMBL111654

> <Class(50)>
1

> <Class(80)>
1

>  <salt>
false

>  <StandardizerResult>
Tautomerize (ID: Tautomerize)
Neutralize (ID: Neutralize)
Aromatize (ID: Aromatize)
Wedge Clean (ID: Wedge Clean)
Clean 2D (ID: Clean2D)

$$$$
CHEMBL472940
  Mrv2010 08032110442D          

 38 41  0  0  0  0            999 V2000
   -0.7846   -1.5389    0.0000 O   0  0  0  0  0  0  0  0  0  0  0  0
   -1.4991   -1.9514    0.0000 C   0  0  0  0  0  0  0  0  0  0  0  0
   -1.4991   -2.7764    0.0000 C   0  0  0  0  0  0  0  0  0  0  0  0
   -2.2135   -3.1889    0.0000 C   0  0  0  0  0  0  0  0  0  0  0  0
   -2.9280   -2.7764    0.0000 C   0  0  0  0  0  0  0  0  0  0  0  0
   -3.6425   -3.1889    0.0000 C   0  0  0  0  0  0  0  0  0  0  0  0
   -4.3569   -2.7764    0.0000 C   0  0  0  0  0  0  0  0  0  0  0  0
   -4.3569   -1.9514    0.0000 C   0  0  0  0  0  0  0  0  0  0  0  0
   -3.6425   -1.5389    0.0000 C   0  0  0  0  0  0  0  0  0  0  0  0
   -2.9280   -1.9514    0.0000 C   0  0  0  0  0  0  0  0  0  0  0  0
   -2.2135   -1.5389    0.0000 C   0  0  0  0  0  0  0  0  0  0  0  0
   -2.2135   -0.7139    0.0000 S   0  0  0  0  0  0  0  0  0  0  0  0
   -1.4991   -0.3014    0.0000 S   0  0  0  0  0  0  0  0  0  0  0  0
   -1.4991    0.5236    0.0000 C   0  0  0  0  0  0  0  0  0  0  0  0
   -2.2135    0.9361    0.0000 C   0  0  0  0  0  0  0  0  0  0  0  0
   -2.9280    0.5236    0.0000 O   0  0  0  0  0  0  0  0  0  0  0  0
   -2.2135    1.7611    0.0000 C   0  0  0  0  0  0  0  0  0  0  0  0
   -1.4991    2.1736    0.0000 C   0  0  0  0  0  0  0  0  0  0  0  0
   -0.7846    1.7611    0.0000 C   0  0  0  0  0  0  0  0  0  0  0  0
   -0.0701    2.1736    0.0000 C   0  0  0  0  0  0  0  0  0  0  0  0
    0.6444    1.7611    0.0000 C   0  0  0  0  0  0  0  0  0  0  0  0
    0.6444    0.9361    0.0000 C   0  0  0  0  0  0  0  0  0  0  0  0
   -0.0701    0.5236    0.0000 C   0  0  0  0  0  0  0  0  0  0  0  0
   -0.7846    0.9361    0.0000 C   0  0  0  0  0  0  0  0  0  0  0  0
   -5.0714   -3.1889    0.0000 H   0  0  0  0  0  0  0  0  0  0  0  0
   -1.4991    2.9986    0.0000 H   0  0  0  0  0  0  0  0  0  0  0  0
    1.3588    0.5236    0.0000 H   0  0  0  0  0  0  0  0  0  0  0  0
   -3.6425    0.9361    0.0000 H   0  0  0  0  0  0  0  0  0  0  0  0
   -2.9280    2.1736    0.0000 H   0  0  0  0  0  0  0  0  0  0  0  0
   -3.6425   -0.7139    0.0000 H   0  0  0  0  0  0  0  0  0  0  0  0
   -2.2135   -4.0139    0.0000 H   0  0  0  0  0  0  0  0  0  0  0  0
    1.3588    2.1736    0.0000 H   0  0  0  0  0  0  0  0  0  0  0  0
   -5.0714   -1.5389    0.0000 H   0  0  0  0  0  0  0  0  0  0  0  0
   -0.0701   -1.9514    0.0000 H   0  0  0  0  0  0  0  0  0  0  0  0
   -0.7846   -3.1889    0.0000 H   0  0  0  0  0  0  0  0  0  0  0  0
   -3.6425   -4.0139    0.0000 H   0  0  0  0  0  0  0  0  0  0  0  0
   -0.0701    2.9986    0.0000 H   0  0  0  0  0  0  0  0  0  0  0  0
   -0.0701   -0.3014    0.0000 H   0  0  0  0  0  0  0  0  0  0  0  0
  1  2  1  0  0  0  0
  2  3  4  0  0  0  0
  2 11  4  0  0  0  0
  3  4  4  0  0  0  0
  4  5  4  0  0  0  0
  5  6  4  0  0  0  0
  5 10  4  0  0  0  0
  6  7  4  0  0  0  0
  7  8  4  0  0  0  0
  8  9  4  0  0  0  0
  9 10  4  0  0  0  0
 10 11  4  0  0  0  0
 11 12  1  0  0  0  0
 12 13  1  0  0  0  0
 13 14  1  0  0  0  0
 14 15  4  0  0  0  0
 14 24  4  0  0  0  0
 15 16  1  0  0  0  0
 15 17  4  0  0  0  0
 17 18  4  0  0  0  0
 18 19  4  0  0  0  0
 19 20  4  0  0  0  0
 19 24  4  0  0  0  0
 20 21  4  0  0  0  0
 21 22  4  0  0  0  0
 22 23  4  0  0  0  0
 23 24  4  0  0  0  0
  7 25  1  0  0  0  0
 18 26  1  0  0  0  0
 22 27  1  0  0  0  0
 16 28  1  0  0  0  0
 17 29  1  0  0  0  0
  9 30  1  0  0  0  0
  4 31  1  0  0  0  0
 21 32  1  0  0  0  0
  8 33  1  0  0  0  0
  1 34  1  0  0  0  0
  3 35  1  0  0  0  0
  6 36  1  0  0  0  0
 20 37  1  0  0  0  0
 23 38  1  0  0  0  0
M  END
> <Molecule ChEMBL ID>
CHEMBL472940

> <Class(50)>
1

> <Class(80)>
1

>  <salt>
false

>  <StandardizerResult>
Tautomerize (ID: Tautomerize)
Neutralize (ID: Neutralize)
Aromatize (ID: Aromatize)
Wedge Clean (ID: Wedge Clean)
Clean 2D (ID: Clean2D)

$$$$
CHEMBL286080
  Mrv2010 08032110442D          

 36 38  0  0  1  0            999 V2000
   -2.1786   -0.5863    0.0000 O   0  0  0  0  0  0  0  0  0  0  0  0
   -1.4642   -0.1738    0.0000 C   0  0  0  0  0  0  0  0  0  0  0  0
   -0.7497   -0.5863    0.0000 C   0  0  0  0  0  0  0  0  0  0  0  0
   -0.0352   -0.1738    0.0000 C   0  0  0  0  0  0  0  0  0  0  0  0
   -0.0352    0.6512    0.0000 C   0  0  0  0  0  0  0  0  0  0  0  0
   -0.7497    1.0637    0.0000 C   0  0  0  0  0  0  0  0  0  0  0  0
   -1.4642    0.6512    0.0000 C   0  0  0  0  0  0  0  0  0  0  0  0
   -2.1786    1.0637    0.0000 O   0  0  0  0  0  0  0  0  0  0  0  0
    0.6098    1.1656    0.0000 C   0  0  0  0  0  0  0  0  0  0  0  0
    0.4262    1.9699    0.0000 C   0  0  0  0  0  0  0  0  0  0  0  0
   -0.3621    2.2131    0.0000 C   0  0  0  0  0  0  0  0  0  0  0  0
   -0.5457    3.0174    0.0000 C   0  0  0  0  0  0  0  0  0  0  0  0
    0.0590    3.5785    0.0000 C   0  0  0  0  0  0  0  0  0  0  0  0
    0.8474    3.3353    0.0000 C   0  0  0  0  0  0  0  0  0  0  0  0
    1.0310    2.5310    0.0000 C   0  0  0  0  0  0  0  0  0  0  0  0
    1.4141    0.9820    0.0000 C   0  0  0  0  0  0  0  0  0  0  0  0
    1.7721    0.2387    0.0000 N   0  0  0  0  0  0  0  0  0  0  0  0
    1.4141   -0.5046    0.0000 C   0  0  0  0  0  0  0  0  0  0  0  0
    0.6098   -0.6882    0.0000 C   0  0  0  0  0  0  0  0  0  0  0  0
   -2.1786    1.8887    0.0000 H   0  0  0  0  0  0  0  0  0  0  0  0
   -0.1992    1.4043    0.0000 H   0  0  0  0  0  0  0  0  0  0  0  0
    1.5977   -1.3089    0.0000 H   0  0  0  0  0  0  0  0  0  0  0  0
    2.1574   -0.8626    0.0000 H   0  0  0  0  0  0  0  0  0  0  0  0
   -0.1245    4.3828    0.0000 H   0  0  0  0  0  0  0  0  0  0  0  0
   -2.8931   -0.1738    0.0000 H   0  0  0  0  0  0  0  0  0  0  0  0
   -1.3341    3.2605    0.0000 H   0  0  0  0  0  0  0  0  0  0  0  0
   -0.7497   -1.4113    0.0000 H   0  0  0  0  0  0  0  0  0  0  0  0
    1.4522    3.8965    0.0000 H   0  0  0  0  0  0  0  0  0  0  0  0
    1.8371    2.7066    0.0000 H   0  0  0  0  0  0  0  0  0  0  0  0
    2.5971    0.2387    0.0000 H   0  0  0  0  0  0  0  0  0  0  0  0
    2.1849    1.2762    0.0000 H   0  0  0  0  0  0  0  0  0  0  0  0
    0.8997    0.3370    0.0000 H   0  0  0  0  0  0  0  0  0  0  0  0
    0.0954   -1.3332    0.0000 H   0  0  0  0  0  0  0  0  0  0  0  0
    0.7934   -1.4925    0.0000 H   0  0  0  0  0  0  0  0  0  0  0  0
   -0.7497    1.8887    0.0000 H   0  0  0  0  0  0  0  0  0  0  0  0
    1.1931    1.7489    0.0000 H   0  0  0  0  0  0  0  0  0  0  0  0
  1  2  1  0  0  0  0
  2  3  4  0  0  0  0
  2  7  4  0  0  0  0
  3  4  4  0  0  0  0
  4  5  4  0  0  0  0
  4 19  1  0  0  0  0
  5  6  4  0  0  0  0
  5  9  1  0  0  0  0
  6  7  4  0  0  0  0
  7  8  1  0  0  0  0
  9 10  1  0  0  0  0
  9 16  1  0  0  0  0
 10 11  4  0  0  0  0
 10 15  4  0  0  0  0
 11 12  4  0  0  0  0
 12 13  4  0  0  0  0
 13 14  4  0  0  0  0
 14 15  4  0  0  0  0
 16 17  1  0  0  0  0
 17 18  1  0  0  0  0
 18 19  1  0  0  0  0
  8 20  1  0  0  0  0
 11 21  1  0  0  0  0
 18 22  1  0  0  0  0
 18 23  1  0  0  0  0
 13 24  1  0  0  0  0
  1 25  1  0  0  0  0
 12 26  1  0  0  0  0
  3 27  1  0  0  0  0
 14 28  1  0  0  0  0
 15 29  1  0  0  0  0
 17 30  1  0  0  0  0
 16 31  1  0  0  0  0
 16 32  1  0  0  0  0
 19 33  1  0  0  0  0
 19 34  1  0  0  0  0
  6 35  1  0  0  0  0
  9 36  1  0  0  0  0
M  END
> <Molecule ChEMBL ID>
CHEMBL286080

> <Class(50)>
1

> <Class(80)>
1

>  <salt>
false

>  <StandardizerResult>
Tautomerize (ID: Tautomerize)
Transform (ID: Transform NO2 (1))
Aromatize (ID: Aromatize)
Wedge Clean (ID: Wedge Clean)
Clean 2D (ID: Clean2D)

$$$$
CHEMBL477197
  Mrv2010 08032110442D          

 36 39  0  0  1  0            999 V2000
   -4.6763    0.9121    0.0000 O   0  0  0  0  0  0  0  0  0  0  0  0
   -3.8796    0.6977    0.0000 C   0  0  0  0  0  0  0  0  0  0  0  0
   -3.6669   -0.0994    0.0000 C   0  0  0  0  0  0  0  0  0  0  0  0
   -2.8703   -0.3138    0.0000 C   0  0  0  0  0  0  0  0  0  0  0  0
   -2.2863    0.2690    0.0000 C   0  0  0  0  0  0  0  0  0  0  0  0
   -2.4990    1.0661    0.0000 C   0  0  0  0  0  0  0  0  0  0  0  0
   -3.2956    1.2805    0.0000 C   0  0  0  0  0  0  0  0  0  0  0  0
   -3.5083    2.0776    0.0000 O   0  0  0  0  0  0  0  0  0  0  0  0
   -1.5516   -0.1063    0.0000 C   0  0  0  0  0  0  0  0  0  0  0  0
   -0.7811    0.1885    0.0000 C   0  0  0  0  0  0  0  0  0  0  0  0
   -0.6512    1.0032    0.0000 C   0  0  0  0  0  0  0  0  0  0  0  0
    0.1194    1.2981    0.0000 C   0  0  0  0  0  0  0  0  0  0  0  0
    0.7599    0.7782    0.0000 C   0  0  0  0  0  0  0  0  0  0  0  0
    1.5305    1.0730    0.0000 O   0  0  0  0  0  0  0  0  0  0  0  0
    0.6300   -0.0365    0.0000 C   0  0  0  0  0  0  0  0  0  0  0  0
    1.2706   -0.5564    0.0000 O   0  0  0  0  0  0  0  0  0  0  0  0
   -0.1405   -0.3314    0.0000 C   0  0  0  0  0  0  0  0  0  0  0  0
   -0.2704   -1.1461    0.0000 O   0  0  0  0  0  0  0  0  0  0  0  0
   -1.0409   -1.4409    0.0000 C   0  0  0  0  0  0  0  0  0  0  0  0
   -1.6815   -0.9210    0.0000 C   0  0  0  0  0  0  0  0  0  0  0  0
   -1.8959   -1.7177    0.0000 O   0  0  0  0  0  0  0  0  0  0  0  0
   -2.4965   -1.0492    0.0000 C   0  0  0  0  0  0  0  0  0  0  0  0
   -4.8890    1.7092    0.0000 H   0  0  0  0  0  0  0  0  0  0  0  0
   -3.3011   -1.2316    0.0000 H   0  0  0  0  0  0  0  0  0  0  0  0
   -2.9566   -1.7341    0.0000 H   0  0  0  0  0  0  0  0  0  0  0  0
    0.2493    2.1128    0.0000 H   0  0  0  0  0  0  0  0  0  0  0  0
   -2.1102   -2.5144    0.0000 H   0  0  0  0  0  0  0  0  0  0  0  0
   -1.2918    1.5231    0.0000 H   0  0  0  0  0  0  0  0  0  0  0  0
    2.1711    0.5532    0.0000 H   0  0  0  0  0  0  0  0  0  0  0  0
    1.1407   -1.3711    0.0000 H   0  0  0  0  0  0  0  0  0  0  0  0
   -1.9150    1.6488    0.0000 H   0  0  0  0  0  0  0  0  0  0  0  0
   -4.2509   -0.6821    0.0000 H   0  0  0  0  0  0  0  0  0  0  0  0
   -0.9110   -0.6262    0.0000 H   0  0  0  0  0  0  0  0  0  0  0  0
   -1.0538   -2.2658    0.0000 H   0  0  0  0  0  0  0  0  0  0  0  0
   -0.5131   -2.0750    0.0000 H   0  0  0  0  0  0  0  0  0  0  0  0
   -2.9243    2.6603    0.0000 H   0  0  0  0  0  0  0  0  0  0  0  0
  1  2  1  0  0  0  0
  2  3  4  0  0  0  0
  2  7  4  0  0  0  0
  3  4  4  0  0  0  0
  4  5  4  0  0  0  0
  4 22  1  0  0  0  0
  5  6  4  0  0  0  0
  5  9  1  0  0  0  0
  6  7  4  0  0  0  0
  7  8  1  0  0  0  0
  9 10  1  0  0  0  0
  9 20  1  0  0  0  0
 10 11  4  0  0  0  0
 10 17  4  0  0  0  0
 11 12  4  0  0  0  0
 12 13  4  0  0  0  0
 13 14  1  0  0  0  0
 13 15  4  0  0  0  0
 15 16  1  0  0  0  0
 15 17  4  0  0  0  0
 17 18  1  0  0  0  0
 18 19  1  0  0  0  0
 19 20  1  0  0  0  0
 20 21  1  0  0  0  0
 20 22  1  0  0  0  0
  1 23  1  0  0  0  0
 22 24  1  0  0  0  0
 22 25  1  0  0  0  0
 12 26  1  0  0  0  0
 21 27  1  0  0  0  0
 11 28  1  0  0  0  0
 14 29  1  0  0  0  0
 16 30  1  0  0  0  0
  6 31  1  0  0  0  0
  3 32  1  0  0  0  0
  9 33  1  0  0  0  0
 19 34  1  0  0  0  0
 19 35  1  0  0  0  0
  8 36  1  0  0  0  0
M  END
> <Molecule ChEMBL ID>
CHEMBL477197

> <Class(50)>
1

> <Class(80)>
1

>  <salt>
false

>  <StandardizerResult>
Tautomerize (ID: Tautomerize)
Transform (ID: Transform NO2 (1))
Aromatize (ID: Aromatize)
Wedge Clean (ID: Wedge Clean)
Clean 2D (ID: Clean2D)

$$$$
CHEMBL3797437
  Mrv2010 08032110442D          

 45 48  0  0  1  0            999 V2000
    0.1412    1.1179    0.0000 O   0  0  0  0  0  0  0  0  0  0  0  0
   -0.5733    1.5304    0.0000 C   0  0  0  0  0  0  0  0  0  0  0  0
   -1.2877    1.1179    0.0000 C   0  0  0  0  0  0  0  0  0  0  0  0
   -2.0022    1.5304    0.0000 C   0  0  0  0  0  0  0  0  0  0  0  0
   -2.0022    2.3554    0.0000 C   0  0  0  0  0  0  0  0  0  0  0  0
   -1.2877    2.7679    0.0000 C   0  0  0  0  0  0  0  0  0  0  0  0
   -0.5733    2.3554    0.0000 C   0  0  0  0  0  0  0  0  0  0  0  0
    0.1412    2.7679    0.0000 C   0  0  0  0  0  0  0  0  0  0  0  0
    0.8557    2.3554    0.0000 C   0  0  0  0  0  0  0  0  0  0  0  0
    1.5701    2.7679    0.0000 C   0  0  0  0  0  0  0  0  0  0  0  0
    2.2846    2.3554    0.0000 C   0  0  0  0  0  0  0  0  0  0  0  0
    2.2846    1.5304    0.0000 C   0  0  0  0  0  0  0  0  0  0  0  0
    2.9991    1.1179    0.0000 C   0  0  0  0  0  0  0  0  0  0  0  0
    3.7136    0.7054    0.0000 F   0  0  0  0  0  0  0  0  0  0  0  0
    3.4116    1.8324    0.0000 F   0  0  0  0  0  0  0  0  0  0  0  0
    2.5866    0.4034    0.0000 F   0  0  0  0  0  0  0  0  0  0  0  0
    1.5701    1.1179    0.0000 C   0  0  0  0  0  0  0  0  0  0  0  0
    0.8557    1.5304    0.0000 C   0  0  0  0  0  0  0  0  0  0  0  0
    0.1412    3.5929    0.0000 N   0  0  0  0  0  0  0  0  0  0  0  0
   -0.5733    4.0054    0.0000 C   0  0  0  0  0  0  0  0  0  0  0  0
   -0.5733    4.8304    0.0000 C   0  0  0  0  0  0  0  0  0  0  0  0
    0.1412    5.2429    0.0000 O   0  0  0  0  0  0  0  0  0  0  0  0
    0.8557    4.8304    0.0000 C   0  0  0  0  0  0  0  0  0  0  0  0
    0.8557    4.0054    0.0000 C   0  0  0  0  0  0  0  0  0  0  0  0
   -2.7868    2.6103    0.0000 O   0  0  0  0  0  0  0  0  0  0  0  0
   -3.2718    1.9429    0.0000 C   0  0  0  0  0  0  0  0  0  0  0  0
   -2.7868    1.2755    0.0000 O   0  0  0  0  0  0  0  0  0  0  0  0
   -0.7165    5.6429    0.0000 H   0  0  0  0  0  0  0  0  0  0  0  0
   -1.2053    5.3607    0.0000 H   0  0  0  0  0  0  0  0  0  0  0  0
   -1.2877    0.2929    0.0000 H   0  0  0  0  0  0  0  0  0  0  0  0
    1.5701    3.5929    0.0000 H   0  0  0  0  0  0  0  0  0  0  0  0
    2.9991    2.7679    0.0000 H   0  0  0  0  0  0  0  0  0  0  0  0
    1.5701    1.9429    0.0000 H   0  0  0  0  0  0  0  0  0  0  0  0
    0.1412    0.2929    0.0000 H   0  0  0  0  0  0  0  0  0  0  0  0
   -0.5733    3.1804    0.0000 H   0  0  0  0  0  0  0  0  0  0  0  0
   -1.2877    4.4179    0.0000 H   0  0  0  0  0  0  0  0  0  0  0  0
    0.8557    3.1804    0.0000 H   0  0  0  0  0  0  0  0  0  0  0  0
    0.1412    4.4179    0.0000 H   0  0  0  0  0  0  0  0  0  0  0  0
   -1.2877    3.5929    0.0000 H   0  0  0  0  0  0  0  0  0  0  0  0
    0.1412    1.9429    0.0000 H   0  0  0  0  0  0  0  0  0  0  0  0
    1.6793    4.8784    0.0000 H   0  0  0  0  0  0  0  0  0  0  0  0
    1.3090    5.5197    0.0000 H   0  0  0  0  0  0  0  0  0  0  0  0
   -4.0002    2.3302    0.0000 H   0  0  0  0  0  0  0  0  0  0  0  0
   -4.0002    1.5556    0.0000 H   0  0  0  0  0  0  0  0  0  0  0  0
    1.5701    0.2929    0.0000 H   0  0  0  0  0  0  0  0  0  0  0  0
  1  2  1  0  0  0  0
  2  3  4  0  0  0  0
  2  7  4  0  0  0  0
  3  4  4  0  0  0  0
  4  5  4  0  0  0  0
  4 27  1  0  0  0  0
  5  6  4  0  0  0  0
  5 25  1  0  0  0  0
  6  7  4  0  0  0  0
  7  8  1  0  0  0  0
  8  9  1  0  0  0  0
  8 19  1  0  0  0  0
  9 10  4  0  0  0  0
  9 18  4  0  0  0  0
 10 11  4  0  0  0  0
 11 12  4  0  0  0  0
 12 13  1  0  0  0  0
 12 17  4  0  0  0  0
 13 14  1  0  0  0  0
 13 15  1  0  0  0  0
 13 16  1  0  0  0  0
 17 18  4  0  0  0  0
 19 20  1  0  0  0  0
 19 24  1  0  0  0  0
 20 21  1  0  0  0  0
 21 22  1  0  0  0  0
 22 23  1  0  0  0  0
 23 24  1  0  0  0  0
 25 26  1  0  0  0  0
 26 27  1  0  0  0  0
 21 28  1  0  0  0  0
 21 29  1  0  0  0  0
  3 30  1  0  0  0  0
 10 31  1  0  0  0  0
 11 32  1  0  0  0  0
 18 33  1  0  0  0  0
  1 34  1  0  0  0  0
 20 35  1  0  0  0  0
 20 36  1  0  0  0  0
 24 37  1  0  0  0  0
 24 38  1  0  0  0  0
  6 39  1  0  0  0  0
  8 40  1  0  0  0  0
 23 41  1  0  0  0  0
 23 42  1  0  0  0  0
 26 43  1  0  0  0  0
 26 44  1  0  0  0  0
 17 45  1  0  0  0  0
M  END
> <Molecule ChEMBL ID>
CHEMBL3797437

> <Class(50)>
1

> <Class(80)>
1

>  <salt>
false

>  <StandardizerResult>
Tautomerize (ID: Tautomerize)
Transform (ID: Transform NO2 (1))
Aromatize (ID: Aromatize)
Wedge Clean (ID: Wedge Clean)
Clean 2D (ID: Clean2D)

$$$$
CHEMBL353335
  Mrv2010 08032110442D          

 36 38  0  0  1  0            999 V2000
   -2.8643    0.7936    0.0000 O   0  0  0  0  0  0  0  0  0  0  0  0
   -2.1499    1.2061    0.0000 C   0  0  0  0  0  0  0  0  0  0  0  0
   -1.4354    0.7936    0.0000 C   0  0  0  0  0  0  0  0  0  0  0  0
   -0.7209    1.2061    0.0000 C   0  0  0  0  0  0  0  0  0  0  0  0
   -0.7209    2.0311    0.0000 C   0  0  0  0  0  0  0  0  0  0  0  0
   -1.4354    2.4436    0.0000 C   0  0  0  0  0  0  0  0  0  0  0  0
   -1.4354    3.2686    0.0000 Cl  0  0  0  0  0  0  0  0  0  0  0  0
   -2.1499    2.0311    0.0000 C   0  0  0  0  0  0  0  0  0  0  0  0
   -2.8643    2.4436    0.0000 O   0  0  0  0  0  0  0  0  0  0  0  0
   -0.0759    2.5454    0.0000 C   0  0  0  0  0  0  0  0  0  0  0  0
    0.7284    2.3619    0.0000 C   0  0  0  0  0  0  0  0  0  0  0  0
    1.0863    1.6186    0.0000 N   0  0  0  0  0  0  0  0  0  0  0  0
    0.7284    0.8753    0.0000 C   0  0  0  0  0  0  0  0  0  0  0  0
   -0.0759    0.6917    0.0000 C   0  0  0  0  0  0  0  0  0  0  0  0
   -0.2595   -0.1126    0.0000 C   0  0  0  0  0  0  0  0  0  0  0  0
    0.3453   -0.6738    0.0000 C   0  0  0  0  0  0  0  0  0  0  0  0
    0.1617   -1.4781    0.0000 C   0  0  0  0  0  0  0  0  0  0  0  0
   -0.6267   -1.7213    0.0000 C   0  0  0  0  0  0  0  0  0  0  0  0
   -1.2314   -1.1601    0.0000 C   0  0  0  0  0  0  0  0  0  0  0  0
   -1.0479   -0.3558    0.0000 C   0  0  0  0  0  0  0  0  0  0  0  0
   -0.4431   -0.9169    0.0000 H   0  0  0  0  0  0  0  0  0  0  0  0
   -1.4354   -0.0314    0.0000 H   0  0  0  0  0  0  0  0  0  0  0  0
    1.0926   -1.0233    0.0000 H   0  0  0  0  0  0  0  0  0  0  0  0
    0.9120    0.0710    0.0000 H   0  0  0  0  0  0  0  0  0  0  0  0
    1.4717    0.5173    0.0000 H   0  0  0  0  0  0  0  0  0  0  0  0
   -2.8643    3.2686    0.0000 H   0  0  0  0  0  0  0  0  0  0  0  0
   -0.8102   -2.5256    0.0000 H   0  0  0  0  0  0  0  0  0  0  0  0
    0.1077    3.3498    0.0000 H   0  0  0  0  0  0  0  0  0  0  0  0
   -0.5903    3.1905    0.0000 H   0  0  0  0  0  0  0  0  0  0  0  0
    1.9113    1.6186    0.0000 H   0  0  0  0  0  0  0  0  0  0  0  0
    0.7665   -2.0392    0.0000 H   0  0  0  0  0  0  0  0  0  0  0  0
   -3.5788    1.2061    0.0000 H   0  0  0  0  0  0  0  0  0  0  0  0
   -0.8546    0.4192    0.0000 H   0  0  0  0  0  0  0  0  0  0  0  0
    1.4717    2.7198    0.0000 H   0  0  0  0  0  0  0  0  0  0  0  0
    0.9120    3.1662    0.0000 H   0  0  0  0  0  0  0  0  0  0  0  0
   -2.0198   -1.4033    0.0000 H   0  0  0  0  0  0  0  0  0  0  0  0
  1  2  1  0  0  0  0
  2  3  4  0  0  0  0
  2  8  4  0  0  0  0
  3  4  4  0  0  0  0
  4  5  4  0  0  0  0
  4 14  1  0  0  0  0
  5  6  4  0  0  0  0
  5 10  1  0  0  0  0
  6  7  1  0  0  0  0
  6  8  4  0  0  0  0
  8  9  1  0  0  0  0
 10 11  1  0  0  0  0
 11 12  1  0  0  0  0
 12 13  1  0  0  0  0
 13 14  1  0  0  0  0
 14 15  1  0  0  0  0
 15 16  4  0  0  0  0
 15 20  4  0  0  0  0
 16 17  4  0  0  0  0
 17 18  4  0  0  0  0
 18 19  4  0  0  0  0
 19 20  4  0  0  0  0
 20 21  1  0  0  0  0
  3 22  1  0  0  0  0
 16 23  1  0  0  0  0
 13 24  1  0  0  0  0
 13 25  1  0  0  0  0
  9 26  1  0  0  0  0
 18 27  1  0  0  0  0
 10 28  1  0  0  0  0
 10 29  1  0  0  0  0
 12 30  1  0  0  0  0
 17 31  1  0  0  0  0
  1 32  1  0  0  0  0
 14 33  1  0  0  0  0
 11 34  1  0  0  0  0
 11 35  1  0  0  0  0
 19 36  1  0  0  0  0
M  END
> <Molecule ChEMBL ID>
CHEMBL353335

> <Class(50)>
1

> <Class(80)>
1

>  <salt>
false

>  <StandardizerResult>
Tautomerize (ID: Tautomerize)
Transform (ID: Transform NO2 (1))
Aromatize (ID: Aromatize)
Wedge Clean (ID: Wedge Clean)
Clean 2D (ID: Clean2D)

$$$$
CHEMBL4303361
  Mrv2010 08032110442D          

 38 39  0  0  0  0            999 V2000
   -3.7380    2.5850    0.0000 O   0  0  0  0  0  0  0  0  0  0  0  0
   -3.7380    1.7600    0.0000 C   0  0  0  0  0  0  0  0  0  0  0  0
   -3.0236    1.3475    0.0000 C   0  0  0  0  0  0  0  0  0  0  0  0
   -3.0236    0.5225    0.0000 C   0  0  0  0  0  0  0  0  0  0  0  0
   -2.3091    0.1100    0.0000 C   0  0  0  0  0  0  0  0  0  0  0  0
   -2.3091   -0.7150    0.0000 N   0  0  0  0  0  0  0  0  0  0  0  0
   -1.5946   -1.1275    0.0000 C   0  0  0  0  0  0  0  0  0  0  0  0
   -0.8802   -0.7150    0.0000 S   0  0  0  0  0  0  0  0  0  0  0  0
   -1.5946   -1.9525    0.0000 C   0  0  0  0  0  0  0  0  0  0  0  0
   -0.8802   -2.3650    0.0000 C   0  0  0  0  0  0  0  0  0  0  0  0
   -0.8802   -3.1900    0.0000 C   0  0  0  0  0  0  0  0  0  0  0  0
   -0.1657   -3.6025    0.0000 C   0  0  0  0  0  0  0  0  0  0  0  0
   -0.1657   -4.4275    0.0000 C   0  0  0  0  0  0  0  0  0  0  0  0
    0.5488   -4.8400    0.0000 O   0  0  0  0  0  0  0  0  0  0  0  0
   -0.8802   -4.8400    0.0000 C   0  0  0  0  0  0  0  0  0  0  0  0
   -0.8802   -5.6650    0.0000 O   0  0  0  0  0  0  0  0  0  0  0  0
   -1.5946   -4.4275    0.0000 C   0  0  0  0  0  0  0  0  0  0  0  0
   -2.3091   -4.8400    0.0000 Br  0  0  0  0  0  0  0  0  0  0  0  0
   -1.5946   -3.6025    0.0000 C   0  0  0  0  0  0  0  0  0  0  0  0
   -3.7380    0.1100    0.0000 C   0  0  0  0  0  0  0  0  0  0  0  0
   -4.4525    0.5225    0.0000 C   0  0  0  0  0  0  0  0  0  0  0  0
   -5.1670    0.1100    0.0000 O   0  0  0  0  0  0  0  0  0  0  0  0
   -4.4525    1.3475    0.0000 C   0  0  0  0  0  0  0  0  0  0  0  0
   -5.1670    1.7600    0.0000 O   0  0  0  0  0  0  0  0  0  0  0  0
   -0.1657   -1.9525    0.0000 H   0  0  0  0  0  0  0  0  0  0  0  0
   -2.3091    1.7600    0.0000 H   0  0  0  0  0  0  0  0  0  0  0  0
   -1.4855    0.1580    0.0000 H   0  0  0  0  0  0  0  0  0  0  0  0
   -1.8558    0.7993    0.0000 H   0  0  0  0  0  0  0  0  0  0  0  0
   -3.0236   -1.1275    0.0000 H   0  0  0  0  0  0  0  0  0  0  0  0
   -5.8815    0.5225    0.0000 H   0  0  0  0  0  0  0  0  0  0  0  0
   -2.3091   -2.3650    0.0000 H   0  0  0  0  0  0  0  0  0  0  0  0
    0.5488   -5.6650    0.0000 H   0  0  0  0  0  0  0  0  0  0  0  0
   -3.0236    2.9975    0.0000 H   0  0  0  0  0  0  0  0  0  0  0  0
    0.5488   -3.1900    0.0000 H   0  0  0  0  0  0  0  0  0  0  0  0
   -2.3091   -3.1900    0.0000 H   0  0  0  0  0  0  0  0  0  0  0  0
   -1.5946   -6.0775    0.0000 H   0  0  0  0  0  0  0  0  0  0  0  0
   -3.7380   -0.7150    0.0000 H   0  0  0  0  0  0  0  0  0  0  0  0
   -5.1670    2.5850    0.0000 H   0  0  0  0  0  0  0  0  0  0  0  0
  1  2  1  0  0  0  0
  2  3  4  0  0  0  0
  2 23  4  0  0  0  0
  3  4  4  0  0  0  0
  4  5  1  0  0  0  0
  4 20  4  0  0  0  0
  5  6  1  0  0  0  0
  6  7  1  0  0  0  0
  7  8  2  0  0  0  0
  7  9  1  0  0  0  0
  9 10  2  0  0  0  0
 10 11  1  0  0  0  0
 11 12  4  0  0  0  0
 11 19  4  0  0  0  0
 12 13  4  0  0  0  0
 13 14  1  0  0  0  0
 13 15  4  0  0  0  0
 15 16  1  0  0  0  0
 15 17  4  0  0  0  0
 17 18  1  0  0  0  0
 17 19  4  0  0  0  0
 20 21  4  0  0  0  0
 21 22  1  0  0  0  0
 21 23  4  0  0  0  0
 23 24  1  0  0  0  0
 10 25  1  0  0  0  0
  3 26  1  0  0  0  0
  5 27  1  0  0  0  0
  5 28  1  0  0  0  0
  6 29  1  0  0  0  0
 22 30  1  0  0  0  0
  9 31  1  0  0  0  0
 14 32  1  0  0  0  0
  1 33  1  0  0  0  0
 12 34  1  0  0  0  0
 19 35  1  0  0  0  0
 16 36  1  0  0  0  0
 20 37  1  0  0  0  0
 24 38  1  0  0  0  0
M  END
> <Molecule ChEMBL ID>
CHEMBL4303361

> <Class(50)>
1

> <Class(80)>
1

>  <salt>
false

>  <StandardizerResult>
Tautomerize (ID: Tautomerize)
Neutralize (ID: Neutralize)
Aromatize (ID: Aromatize)
Wedge Clean (ID: Wedge Clean)
Clean 2D (ID: Clean2D)

$$$$
CHEMBL4303312
  Mrv2010 08032110442D          

 14 14  0  0  0  0            999 V2000
    0.1905    1.6852    0.0000 O   0  0  0  0  0  0  0  0  0  0  0  0
    0.1905    0.8602    0.0000 C   0  0  0  0  0  0  0  0  0  0  0  0
    0.9049    0.4477    0.0000 C   0  0  0  0  0  0  0  0  0  0  0  0
    1.6194    0.8602    0.0000 I   0  0  0  0  0  0  0  0  0  0  0  0
    0.9049   -0.3773    0.0000 C   0  0  0  0  0  0  0  0  0  0  0  0
    0.1905   -0.7898    0.0000 C   0  0  0  0  0  0  0  0  0  0  0  0
    0.1905   -1.6148    0.0000 I   0  0  0  0  0  0  0  0  0  0  0  0
   -0.5240   -0.3773    0.0000 C   0  0  0  0  0  0  0  0  0  0  0  0
   -1.2385   -0.7898    0.0000 O   0  0  0  0  0  0  0  0  0  0  0  0
   -0.5240    0.4477    0.0000 C   0  0  0  0  0  0  0  0  0  0  0  0
   -1.2385    0.8602    0.0000 I   0  0  0  0  0  0  0  0  0  0  0  0
    0.9049    2.0977    0.0000 H   0  0  0  0  0  0  0  0  0  0  0  0
   -1.9530   -0.3773    0.0000 H   0  0  0  0  0  0  0  0  0  0  0  0
    1.6194   -0.7898    0.0000 H   0  0  0  0  0  0  0  0  0  0  0  0
  1  2  1  0  0  0  0
  2  3  4  0  0  0  0
  2 10  4  0  0  0  0
  3  4  1  0  0  0  0
  3  5  4  0  0  0  0
  5  6  4  0  0  0  0
  6  7  1  0  0  0  0
  6  8  4  0  0  0  0
  8  9  1  0  0  0  0
  8 10  4  0  0  0  0
 10 11  1  0  0  0  0
  1 12  1  0  0  0  0
  9 13  1  0  0  0  0
  5 14  1  0  0  0  0
M  END
> <Molecule ChEMBL ID>
CHEMBL4303312

> <Class(50)>
1

> <Class(80)>
1

>  <salt>
false

>  <StandardizerResult>
Tautomerize (ID: Tautomerize)
Neutralize (ID: Neutralize)
Aromatize (ID: Aromatize)
Wedge Clean (ID: Wedge Clean)
Clean 2D (ID: Clean2D)

$$$$
CHEMBL3545157
  Mrv2010 08032110442D          

 38 41  0  0  0  0            999 V2000
   -3.0615   -1.6168    0.0000 O   0  0  0  0  0  0  0  0  0  0  0  0
   -2.5766   -0.9493    0.0000 C   0  0  0  0  0  0  0  0  0  0  0  0
   -2.8316   -0.1647    0.0000 S   0  0  0  0  0  0  0  0  0  0  0  0
   -2.1641    0.3202    0.0000 N   0  0  0  0  0  0  0  0  0  0  0  0
   -2.1641    1.1452    0.0000 C   0  0  0  0  0  0  0  0  0  0  0  0
   -2.8786    1.5577    0.0000 C   0  0  0  0  0  0  0  0  0  0  0  0
   -2.8786    2.3827    0.0000 C   0  0  0  0  0  0  0  0  0  0  0  0
   -2.1641    2.7952    0.0000 C   0  0  0  0  0  0  0  0  0  0  0  0
   -1.4496    2.3827    0.0000 C   0  0  0  0  0  0  0  0  0  0  0  0
   -0.7352    2.7952    0.0000 C   0  0  0  0  0  0  0  0  0  0  0  0
   -0.0207    2.3827    0.0000 C   0  0  0  0  0  0  0  0  0  0  0  0
   -0.0207    1.5577    0.0000 C   0  0  0  0  0  0  0  0  0  0  0  0
   -0.7352    1.1452    0.0000 C   0  0  0  0  0  0  0  0  0  0  0  0
   -1.4496    1.5577    0.0000 C   0  0  0  0  0  0  0  0  0  0  0  0
   -1.4967   -0.1647    0.0000 C   0  0  0  0  0  0  0  0  0  0  0  0
   -0.7121    0.0902    0.0000 O   0  0  0  0  0  0  0  0  0  0  0  0
   -1.7516   -0.9493    0.0000 N   0  0  0  0  0  0  0  0  0  0  0  0
   -1.2667   -1.6168    0.0000 C   0  0  0  0  0  0  0  0  0  0  0  0
   -1.6023   -2.3705    0.0000 C   0  0  0  0  0  0  0  0  0  0  0  0
   -1.1173   -3.0379    0.0000 C   0  0  0  0  0  0  0  0  0  0  0  0
   -1.4529   -3.7916    0.0000 C   0  0  0  0  0  0  0  0  0  0  0  0
   -2.2734   -3.8778    0.0000 C   0  0  0  0  0  0  0  0  0  0  0  0
   -2.7583   -3.2104    0.0000 C   0  0  0  0  0  0  0  0  0  0  0  0
   -2.4227   -2.4567    0.0000 C   0  0  0  0  0  0  0  0  0  0  0  0
   -3.5931    1.1452    0.0000 H   0  0  0  0  0  0  0  0  0  0  0  0
   -0.4948   -1.9080    0.0000 H   0  0  0  0  0  0  0  0  0  0  0  0
   -0.5722   -1.1715    0.0000 H   0  0  0  0  0  0  0  0  0  0  0  0
   -0.7352    0.3202    0.0000 H   0  0  0  0  0  0  0  0  0  0  0  0
    0.6938    1.1452    0.0000 H   0  0  0  0  0  0  0  0  0  0  0  0
   -0.9680   -4.4590    0.0000 H   0  0  0  0  0  0  0  0  0  0  0  0
   -0.7352    3.6202    0.0000 H   0  0  0  0  0  0  0  0  0  0  0  0
   -2.6089   -4.6315    0.0000 H   0  0  0  0  0  0  0  0  0  0  0  0
   -0.2969   -2.9517    0.0000 H   0  0  0  0  0  0  0  0  0  0  0  0
    0.6938    2.7952    0.0000 H   0  0  0  0  0  0  0  0  0  0  0  0
   -3.5788   -3.2966    0.0000 H   0  0  0  0  0  0  0  0  0  0  0  0
   -3.5931    2.7952    0.0000 H   0  0  0  0  0  0  0  0  0  0  0  0
   -2.1641    3.6202    0.0000 H   0  0  0  0  0  0  0  0  0  0  0  0
   -2.9077   -1.7893    0.0000 H   0  0  0  0  0  0  0  0  0  0  0  0
  1  2  2  0  0  0  0
  2  3  1  0  0  0  0
  2 17  1  0  0  0  0
  3  4  1  0  0  0  0
  4  5  1  0  0  0  0
  4 15  1  0  0  0  0
  5  6  4  0  0  0  0
  5 14  4  0  0  0  0
  6  7  4  0  0  0  0
  7  8  4  0  0  0  0
  8  9  4  0  0  0  0
  9 10  4  0  0  0  0
  9 14  4  0  0  0  0
 10 11  4  0  0  0  0
 11 12  4  0  0  0  0
 12 13  4  0  0  0  0
 13 14  4  0  0  0  0
 15 16  2  0  0  0  0
 15 17  1  0  0  0  0
 17 18  1  0  0  0  0
 18 19  1  0  0  0  0
 19 20  4  0  0  0  0
 19 24  4  0  0  0  0
 20 21  4  0  0  0  0
 21 22  4  0  0  0  0
 22 23  4  0  0  0  0
 23 24  4  0  0  0  0
  6 25  1  0  0  0  0
 18 26  1  0  0  0  0
 18 27  1  0  0  0  0
 13 28  1  0  0  0  0
 12 29  1  0  0  0  0
 21 30  1  0  0  0  0
 10 31  1  0  0  0  0
 22 32  1  0  0  0  0
 20 33  1  0  0  0  0
 11 34  1  0  0  0  0
 23 35  1  0  0  0  0
  7 36  1  0  0  0  0
  8 37  1  0  0  0  0
 24 38  1  0  0  0  0
M  END
> <Molecule ChEMBL ID>
CHEMBL3545157

> <Class(50)>
1

> <Class(80)>
1

>  <salt>
false

>  <StandardizerResult>
Tautomerize (ID: Tautomerize)
Neutralize (ID: Neutralize)
Aromatize (ID: Aromatize)
Wedge Clean (ID: Wedge Clean)
Clean 2D (ID: Clean2D)

$$$$
CHEMBL1160160
  Mrv2010 08032110442D          

 37 41  0  0  0  0            999 V2000
   -1.1498    2.7228    0.0000 O   0  0  0  0  0  0  0  0  0  0  0  0
   -1.1500    1.8978    0.0000 C   0  0  0  0  0  0  0  0  0  0  0  0
   -0.4827    1.4127    0.0000 O   0  0  0  0  0  0  0  0  0  0  0  0
   -0.7379    0.6282    0.0000 C   0  0  0  0  0  0  0  0  0  0  0  0
    0.0826    0.7142    0.0000 C   0  0  0  0  0  0  0  0  0  0  0  0
    0.4184    1.4678    0.0000 C   0  0  0  0  0  0  0  0  0  0  0  0
    1.2389    1.5538    0.0000 C   0  0  0  0  0  0  0  0  0  0  0  0
    1.5747    2.3073    0.0000 I   0  0  0  0  0  0  0  0  0  0  0  0
    1.7236    0.8862    0.0000 C   0  0  0  0  0  0  0  0  0  0  0  0
    2.5442    0.9722    0.0000 O   0  0  0  0  0  0  0  0  0  0  0  0
    1.3879    0.1326    0.0000 C   0  0  0  0  0  0  0  0  0  0  0  0
    1.8726   -0.5350    0.0000 I   0  0  0  0  0  0  0  0  0  0  0  0
    0.5674    0.0466    0.0000 C   0  0  0  0  0  0  0  0  0  0  0  0
    0.2316   -0.7070    0.0000 O   0  0  0  0  0  0  0  0  0  0  0  0
   -0.5889   -0.7930    0.0000 C   0  0  0  0  0  0  0  0  0  0  0  0
   -1.0736   -0.1254    0.0000 C   0  0  0  0  0  0  0  0  0  0  0  0
   -1.8941   -0.2114    0.0000 C   0  0  0  0  0  0  0  0  0  0  0  0
   -2.2299   -0.9650    0.0000 C   0  0  0  0  0  0  0  0  0  0  0  0
   -3.0504   -1.0510    0.0000 I   0  0  0  0  0  0  0  0  0  0  0  0
   -1.7452   -1.6325    0.0000 C   0  0  0  0  0  0  0  0  0  0  0  0
   -2.0810   -2.3861    0.0000 O   0  0  0  0  0  0  0  0  0  0  0  0
   -0.9247   -1.5465    0.0000 C   0  0  0  0  0  0  0  0  0  0  0  0
   -0.4400   -2.2141    0.0000 I   0  0  0  0  0  0  0  0  0  0  0  0
   -1.5629    0.6284    0.0000 C   0  0  0  0  0  0  0  0  0  0  0  0
   -2.1151    0.0155    0.0000 C   0  0  0  0  0  0  0  0  0  0  0  0
   -1.8604   -0.7692    0.0000 Cl  0  0  0  0  0  0  0  0  0  0  0  0
   -2.9220    0.1872    0.0000 C   0  0  0  0  0  0  0  0  0  0  0  0
   -3.4742   -0.4257    0.0000 Cl  0  0  0  0  0  0  0  0  0  0  0  0
   -3.1767    0.9719    0.0000 C   0  0  0  0  0  0  0  0  0  0  0  0
   -3.9836    1.1437    0.0000 Cl  0  0  0  0  0  0  0  0  0  0  0  0
   -2.6245    1.5849    0.0000 C   0  0  0  0  0  0  0  0  0  0  0  0
   -2.8792    2.3696    0.0000 Cl  0  0  0  0  0  0  0  0  0  0  0  0
   -1.8176    1.4131    0.0000 C   0  0  0  0  0  0  0  0  0  0  0  0
    0.3503    2.2899    0.0000 H   0  0  0  0  0  0  0  0  0  0  0  0
    3.0289    0.3046    0.0000 H   0  0  0  0  0  0  0  0  0  0  0  0
   -2.9015   -2.4721    0.0000 H   0  0  0  0  0  0  0  0  0  0  0  0
   -1.2647   -0.7447    0.0000 H   0  0  0  0  0  0  0  0  0  0  0  0
  1  2  2  0  0  0  0
  2  3  1  0  0  0  0
  2 33  1  0  0  0  0
  3  4  1  0  0  0  0
  4  5  1  0  0  0  0
  4 16  1  0  0  0  0
  4 24  1  0  0  0  0
  5  6  4  0  0  0  0
  5 13  4  0  0  0  0
  6  7  4  0  0  0  0
  7  8  1  0  0  0  0
  7  9  4  0  0  0  0
  9 10  1  0  0  0  0
  9 11  4  0  0  0  0
 11 12  1  0  0  0  0
 11 13  4  0  0  0  0
 13 14  1  0  0  0  0
 14 15  1  0  0  0  0
 15 16  4  0  0  0  0
 15 22  4  0  0  0  0
 16 17  4  0  0  0  0
 17 18  4  0  0  0  0
 18 19  1  0  0  0  0
 18 20  4  0  0  0  0
 20 21  1  0  0  0  0
 20 22  4  0  0  0  0
 22 23  1  0  0  0  0
 24 25  4  0  0  0  0
 24 33  4  0  0  0  0
 25 26  1  0  0  0  0
 25 27  4  0  0  0  0
 27 28  1  0  0  0  0
 27 29  4  0  0  0  0
 29 30  1  0  0  0  0
 29 31  4  0  0  0  0
 31 32  1  0  0  0  0
 31 33  4  0  0  0  0
  6 34  1  0  0  0  0
 10 35  1  0  0  0  0
 21 36  1  0  0  0  0
 17 37  1  0  0  0  0
M  END
> <Molecule ChEMBL ID>
CHEMBL1160160

> <Class(50)>
1

> <Class(80)>
1

>  <salt>
false

>  <StandardizerResult>
Tautomerize (ID: Tautomerize)
Neutralize (ID: Neutralize)
Aromatize (ID: Aromatize)
Wedge Clean (ID: Wedge Clean)
Clean 2D (ID: Clean2D)

$$$$
CHEMBL51628
  Mrv2010 08032110442D          

 18 19  0  0  0  0            999 V2000
   -3.1043   -0.3884    0.0000 O   0  0  0  0  0  0  0  0  0  0  0  0
   -2.3898    0.0241    0.0000 C   0  0  0  0  0  0  0  0  0  0  0  0
   -2.3898    0.8491    0.0000 C   0  0  0  0  0  0  0  0  0  0  0  0
   -1.6753    1.2616    0.0000 C   0  0  0  0  0  0  0  0  0  0  0  0
   -0.9609    0.8491    0.0000 C   0  0  0  0  0  0  0  0  0  0  0  0
   -0.2464    1.2616    0.0000 C   0  0  0  0  0  0  0  0  0  0  0  0
    0.4681    0.8491    0.0000 C   0  0  0  0  0  0  0  0  0  0  0  0
    0.4681    0.0241    0.0000 C   0  0  0  0  0  0  0  0  0  0  0  0
    1.1825   -0.3884    0.0000 O   0  0  0  0  0  0  0  0  0  0  0  0
   -0.2464   -0.3884    0.0000 C   0  0  0  0  0  0  0  0  0  0  0  0
   -0.9609    0.0241    0.0000 C   0  0  0  0  0  0  0  0  0  0  0  0
   -1.6753   -0.3884    0.0000 O   0  0  0  0  0  0  0  0  0  0  0  0
    1.1825   -1.2134    0.0000 H   0  0  0  0  0  0  0  0  0  0  0  0
   -0.2464   -1.2134    0.0000 H   0  0  0  0  0  0  0  0  0  0  0  0
   -0.2464    2.0866    0.0000 H   0  0  0  0  0  0  0  0  0  0  0  0
   -3.1043    1.2616    0.0000 H   0  0  0  0  0  0  0  0  0  0  0  0
   -1.6753    2.0866    0.0000 H   0  0  0  0  0  0  0  0  0  0  0  0
    1.1825    1.2616    0.0000 H   0  0  0  0  0  0  0  0  0  0  0  0
  1  2  2  0  0  0  0
  2  3  1  0  0  0  0
  2 12  1  0  0  0  0
  3  4  2  0  0  0  0
  4  5  1  0  0  0  0
  5  6  4  0  0  0  0
  5 11  4  0  0  0  0
  6  7  4  0  0  0  0
  7  8  4  0  0  0  0
  8  9  1  0  0  0  0
  8 10  4  0  0  0  0
 10 11  4  0  0  0  0
 11 12  1  0  0  0  0
  9 13  1  0  0  0  0
 10 14  1  0  0  0  0
  6 15  1  0  0  0  0
  3 16  1  0  0  0  0
  4 17  1  0  0  0  0
  7 18  1  0  0  0  0
M  END
> <Molecule ChEMBL ID>
CHEMBL51628

> <Class(50)>
1

> <Class(80)>
1

>  <salt>
false

>  <StandardizerResult>
Tautomerize (ID: Tautomerize)
Neutralize (ID: Neutralize)
Aromatize (ID: Aromatize)
Wedge Clean (ID: Wedge Clean)
Clean 2D (ID: Clean2D)

$$$$
CHEMBL4303240
  Mrv2010 08032110442D          

 40 42  0  0  1  0            999 V2000
   -6.8942   -1.0296    0.0000 O   0  0  0  0  0  0  0  0  0  0  0  0
   -6.1797   -0.6171    0.0000 C   0  0  0  0  0  0  0  0  0  0  0  0
   -6.1797    0.2079    0.0000 C   0  0  0  0  0  0  0  0  0  0  0  0
   -5.4653    0.6204    0.0000 C   0  0  0  0  0  0  0  0  0  0  0  0
   -4.7508    0.2079    0.0000 C   0  0  0  0  0  0  0  0  0  0  0  0
   -4.0363    0.6204    0.0000 C   0  0  0  0  0  0  0  0  0  0  0  0
   -3.3219    0.2079    0.0000 C   0  0  0  0  0  0  0  0  0  0  0  0
   -2.6074    0.6204    0.0000 O   0  0  0  0  0  0  0  0  0  0  0  0
   -1.8929    0.2079    0.0000 C   0  0  1  0  0  0  0  0  0  0  0  0
   -1.8929   -0.6171    0.0000 O   0  0  0  0  0  0  0  0  0  0  0  0
   -1.1784   -1.0296    0.0000 C   0  0  1  0  0  0  0  0  0  0  0  0
   -1.1784   -1.8546    0.0000 C   0  0  0  0  0  0  0  0  0  0  0  0
   -0.4640   -2.2671    0.0000 O   0  0  0  0  0  0  0  0  0  0  0  0
   -0.4640   -0.6171    0.0000 C   0  0  1  0  0  0  0  0  0  0  0  0
    0.2505   -1.0296    0.0000 O   0  0  0  0  0  0  0  0  0  0  0  0
   -0.4640    0.2079    0.0000 C   0  0  1  0  0  0  0  0  0  0  0  0
    0.2505    0.6204    0.0000 O   0  0  0  0  0  0  0  0  0  0  0  0
   -1.1784    0.6204    0.0000 C   0  0  1  0  0  0  0  0  0  0  0  0
   -1.1784    1.4454    0.0000 O   0  0  0  0  0  0  0  0  0  0  0  0
   -3.3219   -0.6171    0.0000 C   0  0  0  0  0  0  0  0  0  0  0  0
   -2.6074   -1.0296    0.0000 O   0  0  0  0  0  0  0  0  0  0  0  0
   -4.0363   -1.0296    0.0000 C   0  0  0  0  0  0  0  0  0  0  0  0
   -4.7508   -0.6171    0.0000 C   0  0  0  0  0  0  0  0  0  0  0  0
   -5.4653   -1.0296    0.0000 O   0  0  0  0  0  0  0  0  0  0  0  0
   -6.8942    0.6204    0.0000 H   0  0  0  0  0  0  0  0  0  0  0  0
   -2.6074   -1.8546    0.0000 H   0  0  0  0  0  0  0  0  0  0  0  0
    0.9650    1.0329    0.0000 H   0  0  0  0  0  0  0  0  0  0  0  0
    0.9650   -1.4421    0.0000 H   0  0  0  0  0  0  0  0  0  0  0  0
   -1.1784    2.2704    0.0000 H   0  0  0  0  0  0  0  0  0  0  0  0
   -1.1784   -0.2046    0.0000 H   0  0  0  0  0  0  0  0  0  0  0  0
   -1.8929    1.0329    0.0000 H   0  0  0  0  0  0  0  0  0  0  0  0
   -4.0363   -1.8546    0.0000 H   0  0  0  0  0  0  0  0  0  0  0  0
   -0.4640   -1.4421    0.0000 H   0  0  0  0  0  0  0  0  0  0  0  0
   -4.0363    1.4454    0.0000 H   0  0  0  0  0  0  0  0  0  0  0  0
   -0.0515   -2.9815    0.0000 H   0  0  0  0  0  0  0  0  0  0  0  0
    0.2505   -0.2046    0.0000 H   0  0  0  0  0  0  0  0  0  0  0  0
   -5.4653    1.4454    0.0000 H   0  0  0  0  0  0  0  0  0  0  0  0
   -0.4640    1.0329    0.0000 H   0  0  0  0  0  0  0  0  0  0  0  0
   -2.0020   -1.9025    0.0000 H   0  0  0  0  0  0  0  0  0  0  0  0
   -1.6318   -2.5439    0.0000 H   0  0  0  0  0  0  0  0  0  0  0  0
  1  2  2  0  0  0  0
  2  3  1  0  0  0  0
  2 24  1  0  0  0  0
  3  4  2  0  0  0  0
  4  5  1  0  0  0  0
  5  6  4  0  0  0  0
  5 23  4  0  0  0  0
  6  7  4  0  0  0  0
  7  8  1  0  0  0  0
  7 20  4  0  0  0  0
  9  8  1  0  0  0  0
  9 10  1  0  0  0  0
 18  9  1  0  0  0  0
 11 10  1  0  0  0  0
 11 12  1  0  0  0  0
 14 11  1  0  0  0  0
 12 13  1  0  0  0  0
 14 15  1  0  0  0  0
 14 16  1  0  0  0  0
 16 17  1  0  0  0  0
 16 18  1  0  0  0  0
 18 19  1  0  0  0  0
 20 21  1  0  0  0  0
 20 22  4  0  0  0  0
 22 23  4  0  0  0  0
 23 24  1  0  0  0  0
  3 25  1  0  0  0  0
 21 26  1  0  0  0  0
 17 27  1  0  0  0  0
 15 28  1  0  0  0  0
 19 29  1  0  0  0  0
 18 30  1  1  0  0  0
  9 31  1  1  0  0  0
 22 32  1  0  0  0  0
 11 33  1  1  0  0  0
  6 34  1  0  0  0  0
 13 35  1  0  0  0  0
 14 36  1  1  0  0  0
  4 37  1  0  0  0  0
 16 38  1  1  0  0  0
 12 39  1  0  0  0  0
 12 40  1  0  0  0  0
M  END
> <Molecule ChEMBL ID>
CHEMBL4303240

> <Class(50)>
1

> <Class(80)>
1

>  <salt>
false

>  <StandardizerResult>
Tautomerize (ID: Tautomerize)
Transform (ID: Transform NO2 (1))
Aromatize (ID: Aromatize)
Wedge Clean (ID: Wedge Clean)
Clean 2D (ID: Clean2D)

$$$$
CHEMBL8260
  Mrv2010 08032110442D          

 30 32  0  0  0  0            999 V2000
   -0.1972   -2.0102    0.0000 O   0  0  0  0  0  0  0  0  0  0  0  0
   -0.1972   -1.1852    0.0000 C   0  0  0  0  0  0  0  0  0  0  0  0
   -0.9116   -0.7727    0.0000 C   0  0  0  0  0  0  0  0  0  0  0  0
   -0.9116    0.0523    0.0000 C   0  0  0  0  0  0  0  0  0  0  0  0
   -1.6261    0.4648    0.0000 C   0  0  0  0  0  0  0  0  0  0  0  0
   -2.3406    0.0523    0.0000 C   0  0  0  0  0  0  0  0  0  0  0  0
   -3.0551    0.4648    0.0000 C   0  0  0  0  0  0  0  0  0  0  0  0
   -3.0551    1.2898    0.0000 C   0  0  0  0  0  0  0  0  0  0  0  0
   -2.3406    1.7023    0.0000 C   0  0  0  0  0  0  0  0  0  0  0  0
   -1.6261    1.2898    0.0000 C   0  0  0  0  0  0  0  0  0  0  0  0
   -0.1972    0.4648    0.0000 O   0  0  0  0  0  0  0  0  0  0  0  0
    0.5173    0.0523    0.0000 C   0  0  0  0  0  0  0  0  0  0  0  0
    1.2318    0.4648    0.0000 C   0  0  0  0  0  0  0  0  0  0  0  0
    1.9462    0.0523    0.0000 C   0  0  0  0  0  0  0  0  0  0  0  0
    2.6607    0.4648    0.0000 O   0  0  0  0  0  0  0  0  0  0  0  0
    1.9462   -0.7727    0.0000 C   0  0  0  0  0  0  0  0  0  0  0  0
    2.6607   -1.1852    0.0000 O   0  0  0  0  0  0  0  0  0  0  0  0
    1.2318   -1.1852    0.0000 C   0  0  0  0  0  0  0  0  0  0  0  0
    1.2318   -2.0102    0.0000 O   0  0  0  0  0  0  0  0  0  0  0  0
    0.5173   -0.7727    0.0000 C   0  0  0  0  0  0  0  0  0  0  0  0
   -1.6261   -1.1852    0.0000 H   0  0  0  0  0  0  0  0  0  0  0  0
   -3.7695    0.0523    0.0000 H   0  0  0  0  0  0  0  0  0  0  0  0
    2.6607   -2.0102    0.0000 H   0  0  0  0  0  0  0  0  0  0  0  0
    0.5173   -2.4227    0.0000 H   0  0  0  0  0  0  0  0  0  0  0  0
   -2.3406    2.5273    0.0000 H   0  0  0  0  0  0  0  0  0  0  0  0
    3.3752    0.0523    0.0000 H   0  0  0  0  0  0  0  0  0  0  0  0
   -3.7695    1.7023    0.0000 H   0  0  0  0  0  0  0  0  0  0  0  0
   -0.9116    1.7023    0.0000 H   0  0  0  0  0  0  0  0  0  0  0  0
   -2.3406   -0.7727    0.0000 H   0  0  0  0  0  0  0  0  0  0  0  0
    1.2318    1.2898    0.0000 H   0  0  0  0  0  0  0  0  0  0  0  0
  1  2  2  0  0  0  0
  2  3  1  0  0  0  0
  2 20  1  0  0  0  0
  3  4  2  0  0  0  0
  4  5  1  0  0  0  0
  4 11  1  0  0  0  0
  5  6  4  0  0  0  0
  5 10  4  0  0  0  0
  6  7  4  0  0  0  0
  7  8  4  0  0  0  0
  8  9  4  0  0  0  0
  9 10  4  0  0  0  0
 11 12  1  0  0  0  0
 12 13  4  0  0  0  0
 12 20  4  0  0  0  0
 13 14  4  0  0  0  0
 14 15  1  0  0  0  0
 14 16  4  0  0  0  0
 16 17  1  0  0  0  0
 16 18  4  0  0  0  0
 18 19  1  0  0  0  0
 18 20  4  0  0  0  0
  3 21  1  0  0  0  0
  7 22  1  0  0  0  0
 17 23  1  0  0  0  0
 19 24  1  0  0  0  0
  9 25  1  0  0  0  0
 15 26  1  0  0  0  0
  8 27  1  0  0  0  0
 10 28  1  0  0  0  0
  6 29  1  0  0  0  0
 13 30  1  0  0  0  0
M  END
> <Molecule ChEMBL ID>
CHEMBL8260

> <Class(50)>
1

> <Class(80)>
1

>  <salt>
false

>  <StandardizerResult>
Tautomerize (ID: Tautomerize)
Neutralize (ID: Neutralize)
Aromatize (ID: Aromatize)
Wedge Clean (ID: Wedge Clean)
Clean 2D (ID: Clean2D)

$$$$
CHEMBL28
  Mrv2010 08032110442D          

 30 32  0  0  0  0            999 V2000
   -0.1066   -2.4234    0.0000 O   0  0  0  0  0  0  0  0  0  0  0  0
   -0.1066   -1.5984    0.0000 C   0  0  0  0  0  0  0  0  0  0  0  0
   -0.8211   -1.1859    0.0000 C   0  0  0  0  0  0  0  0  0  0  0  0
   -0.8211   -0.3609    0.0000 C   0  0  0  0  0  0  0  0  0  0  0  0
   -1.5355    0.0516    0.0000 C   0  0  0  0  0  0  0  0  0  0  0  0
   -2.2500   -0.3609    0.0000 C   0  0  0  0  0  0  0  0  0  0  0  0
   -2.9645    0.0516    0.0000 C   0  0  0  0  0  0  0  0  0  0  0  0
   -2.9645    0.8766    0.0000 C   0  0  0  0  0  0  0  0  0  0  0  0
   -3.6789    1.2891    0.0000 O   0  0  0  0  0  0  0  0  0  0  0  0
   -2.2500    1.2891    0.0000 C   0  0  0  0  0  0  0  0  0  0  0  0
   -1.5355    0.8766    0.0000 C   0  0  0  0  0  0  0  0  0  0  0  0
   -0.1066    0.0516    0.0000 O   0  0  0  0  0  0  0  0  0  0  0  0
    0.6079   -0.3609    0.0000 C   0  0  0  0  0  0  0  0  0  0  0  0
    1.3224    0.0516    0.0000 C   0  0  0  0  0  0  0  0  0  0  0  0
    2.0368   -0.3609    0.0000 C   0  0  0  0  0  0  0  0  0  0  0  0
    2.7513    0.0516    0.0000 O   0  0  0  0  0  0  0  0  0  0  0  0
    2.0368   -1.1859    0.0000 C   0  0  0  0  0  0  0  0  0  0  0  0
    1.3224   -1.5984    0.0000 C   0  0  0  0  0  0  0  0  0  0  0  0
    1.3224   -2.4234    0.0000 O   0  0  0  0  0  0  0  0  0  0  0  0
    0.6079   -1.1859    0.0000 C   0  0  0  0  0  0  0  0  0  0  0  0
    1.3224    0.8766    0.0000 H   0  0  0  0  0  0  0  0  0  0  0  0
   -1.5355   -1.5984    0.0000 H   0  0  0  0  0  0  0  0  0  0  0  0
   -2.2500   -1.1859    0.0000 H   0  0  0  0  0  0  0  0  0  0  0  0
   -3.6789    2.1141    0.0000 H   0  0  0  0  0  0  0  0  0  0  0  0
   -0.8211    1.2891    0.0000 H   0  0  0  0  0  0  0  0  0  0  0  0
   -3.6789   -0.3609    0.0000 H   0  0  0  0  0  0  0  0  0  0  0  0
    2.7513   -1.5984    0.0000 H   0  0  0  0  0  0  0  0  0  0  0  0
    3.4658   -0.3609    0.0000 H   0  0  0  0  0  0  0  0  0  0  0  0
   -2.2500    2.1141    0.0000 H   0  0  0  0  0  0  0  0  0  0  0  0
    0.6079   -2.8359    0.0000 H   0  0  0  0  0  0  0  0  0  0  0  0
  1  2  2  0  0  0  0
  2  3  1  0  0  0  0
  2 20  1  0  0  0  0
  3  4  2  0  0  0  0
  4  5  1  0  0  0  0
  4 12  1  0  0  0  0
  5  6  4  0  0  0  0
  5 11  4  0  0  0  0
  6  7  4  0  0  0  0
  7  8  4  0  0  0  0
  8  9  1  0  0  0  0
  8 10  4  0  0  0  0
 10 11  4  0  0  0  0
 12 13  1  0  0  0  0
 13 14  4  0  0  0  0
 13 20  4  0  0  0  0
 14 15  4  0  0  0  0
 15 16  1  0  0  0  0
 15 17  4  0  0  0  0
 17 18  4  0  0  0  0
 18 19  1  0  0  0  0
 18 20  4  0  0  0  0
 14 21  1  0  0  0  0
  3 22  1  0  0  0  0
  6 23  1  0  0  0  0
  9 24  1  0  0  0  0
 11 25  1  0  0  0  0
  7 26  1  0  0  0  0
 17 27  1  0  0  0  0
 16 28  1  0  0  0  0
 10 29  1  0  0  0  0
 19 30  1  0  0  0  0
M  END
> <Molecule ChEMBL ID>
CHEMBL28

> <Class(50)>
1

> <Class(80)>
1

>  <salt>
false

>  <StandardizerResult>
Tautomerize (ID: Tautomerize)
Neutralize (ID: Neutralize)
Aromatize (ID: Aromatize)
Wedge Clean (ID: Wedge Clean)
Clean 2D (ID: Clean2D)

$$$$
CHEMBL45152
  Mrv2010 08032110442D          

 25 27  0  0  0  0            999 V2000
    0.1242   -0.4261    0.0000 O   0  0  0  0  0  0  0  0  0  0  0  0
    0.3791   -1.2107    0.0000 C   0  0  0  0  0  0  0  0  0  0  0  0
    1.1637   -1.4657    0.0000 C   0  0  0  0  0  0  0  0  0  0  0  0
    1.8782   -1.0532    0.0000 C   0  0  0  0  0  0  0  0  0  0  0  0
    2.5927   -1.4657    0.0000 C   0  0  0  0  0  0  0  0  0  0  0  0
    2.5927   -2.2907    0.0000 C   0  0  0  0  0  0  0  0  0  0  0  0
    1.8782   -2.7032    0.0000 C   0  0  0  0  0  0  0  0  0  0  0  0
    1.1637   -2.2907    0.0000 C   0  0  0  0  0  0  0  0  0  0  0  0
    0.3791   -2.5456    0.0000 S   0  0  0  0  0  0  0  0  0  0  0  0
   -0.1058   -1.8782    0.0000 N   0  0  0  0  0  0  0  0  0  0  0  0
   -0.9308   -1.8782    0.0000 C   0  0  0  0  0  0  0  0  0  0  0  0
   -1.3433   -2.5926    0.0000 C   0  0  0  0  0  0  0  0  0  0  0  0
   -2.1683   -2.5926    0.0000 C   0  0  0  0  0  0  0  0  0  0  0  0
   -2.5808   -1.8782    0.0000 C   0  0  0  0  0  0  0  0  0  0  0  0
   -2.1683   -1.1637    0.0000 C   0  0  0  0  0  0  0  0  0  0  0  0
   -1.3433   -1.1637    0.0000 C   0  0  0  0  0  0  0  0  0  0  0  0
   -3.4058   -1.8782    0.0000 H   0  0  0  0  0  0  0  0  0  0  0  0
   -2.5808   -3.3071    0.0000 H   0  0  0  0  0  0  0  0  0  0  0  0
    3.3071   -1.0532    0.0000 H   0  0  0  0  0  0  0  0  0  0  0  0
    1.8782   -0.2282    0.0000 H   0  0  0  0  0  0  0  0  0  0  0  0
    1.8782   -3.5282    0.0000 H   0  0  0  0  0  0  0  0  0  0  0  0
   -0.9308   -0.4492    0.0000 H   0  0  0  0  0  0  0  0  0  0  0  0
    3.3071   -2.7032    0.0000 H   0  0  0  0  0  0  0  0  0  0  0  0
   -0.9308   -3.3071    0.0000 H   0  0  0  0  0  0  0  0  0  0  0  0
   -2.5808   -0.4492    0.0000 H   0  0  0  0  0  0  0  0  0  0  0  0
  1  2  2  0  0  0  0
  2  3  1  0  0  0  0
  2 10  1  0  0  0  0
  3  4  4  0  0  0  0
  3  8  4  0  0  0  0
  4  5  4  0  0  0  0
  5  6  4  0  0  0  0
  6  7  4  0  0  0  0
  7  8  4  0  0  0  0
  8  9  1  0  0  0  0
  9 10  1  0  0  0  0
 10 11  1  0  0  0  0
 11 12  4  0  0  0  0
 11 16  4  0  0  0  0
 12 13  4  0  0  0  0
 13 14  4  0  0  0  0
 14 15  4  0  0  0  0
 15 16  4  0  0  0  0
 14 17  1  0  0  0  0
 13 18  1  0  0  0  0
  5 19  1  0  0  0  0
  4 20  1  0  0  0  0
  7 21  1  0  0  0  0
 16 22  1  0  0  0  0
  6 23  1  0  0  0  0
 12 24  1  0  0  0  0
 15 25  1  0  0  0  0
M  END
> <Molecule ChEMBL ID>
CHEMBL45152

> <Class(50)>
1

> <Class(80)>
1

>  <salt>
false

>  <StandardizerResult>
Tautomerize (ID: Tautomerize)
Neutralize (ID: Neutralize)
Aromatize (ID: Aromatize)
Wedge Clean (ID: Wedge Clean)
Clean 2D (ID: Clean2D)

$$$$
CHEMBL51085
  Mrv2010 08032110442D          

 25 27  0  0  0  0            999 V2000
    0.1242   -0.4261    0.0000 O   0  0  0  0  0  0  0  0  0  0  0  0
    0.3791   -1.2107    0.0000 C   0  0  0  0  0  0  0  0  0  0  0  0
    1.1637   -1.4657    0.0000 C   0  0  0  0  0  0  0  0  0  0  0  0
    1.8782   -1.0532    0.0000 C   0  0  0  0  0  0  0  0  0  0  0  0
    2.5927   -1.4657    0.0000 C   0  0  0  0  0  0  0  0  0  0  0  0
    2.5927   -2.2907    0.0000 C   0  0  0  0  0  0  0  0  0  0  0  0
    1.8782   -2.7032    0.0000 C   0  0  0  0  0  0  0  0  0  0  0  0
    1.1637   -2.2907    0.0000 C   0  0  0  0  0  0  0  0  0  0  0  0
    0.3791   -2.5456    0.0000 Se  0  0  0  0  0  0  0  0  0  0  0  0
   -0.1058   -1.8782    0.0000 N   0  0  0  0  0  0  0  0  0  0  0  0
   -0.9308   -1.8782    0.0000 C   0  0  0  0  0  0  0  0  0  0  0  0
   -1.3433   -2.5926    0.0000 C   0  0  0  0  0  0  0  0  0  0  0  0
   -2.1683   -2.5926    0.0000 C   0  0  0  0  0  0  0  0  0  0  0  0
   -2.5808   -1.8782    0.0000 C   0  0  0  0  0  0  0  0  0  0  0  0
   -2.1683   -1.1637    0.0000 C   0  0  0  0  0  0  0  0  0  0  0  0
   -1.3433   -1.1637    0.0000 C   0  0  0  0  0  0  0  0  0  0  0  0
    1.8782   -3.5282    0.0000 H   0  0  0  0  0  0  0  0  0  0  0  0
   -0.9308   -0.4492    0.0000 H   0  0  0  0  0  0  0  0  0  0  0  0
    3.3071   -1.0532    0.0000 H   0  0  0  0  0  0  0  0  0  0  0  0
    3.3071   -2.7032    0.0000 H   0  0  0  0  0  0  0  0  0  0  0  0
   -0.9308   -3.3071    0.0000 H   0  0  0  0  0  0  0  0  0  0  0  0
   -2.5808   -0.4492    0.0000 H   0  0  0  0  0  0  0  0  0  0  0  0
   -2.5808   -3.3071    0.0000 H   0  0  0  0  0  0  0  0  0  0  0  0
   -3.4058   -1.8782    0.0000 H   0  0  0  0  0  0  0  0  0  0  0  0
    1.8782   -0.2282    0.0000 H   0  0  0  0  0  0  0  0  0  0  0  0
  1  2  2  0  0  0  0
  2  3  1  0  0  0  0
  2 10  1  0  0  0  0
  3  4  4  0  0  0  0
  3  8  4  0  0  0  0
  4  5  4  0  0  0  0
  5  6  4  0  0  0  0
  6  7  4  0  0  0  0
  7  8  4  0  0  0  0
  8  9  1  0  0  0  0
  9 10  1  0  0  0  0
 10 11  1  0  0  0  0
 11 12  4  0  0  0  0
 11 16  4  0  0  0  0
 12 13  4  0  0  0  0
 13 14  4  0  0  0  0
 14 15  4  0  0  0  0
 15 16  4  0  0  0  0
  7 17  1  0  0  0  0
 16 18  1  0  0  0  0
  5 19  1  0  0  0  0
  6 20  1  0  0  0  0
 12 21  1  0  0  0  0
 15 22  1  0  0  0  0
 13 23  1  0  0  0  0
 14 24  1  0  0  0  0
  4 25  1  0  0  0  0
M  END
> <Molecule ChEMBL ID>
CHEMBL51085

> <Class(50)>
1

> <Class(80)>
1

>  <salt>
false

>  <StandardizerResult>
Tautomerize (ID: Tautomerize)
Neutralize (ID: Neutralize)
Aromatize (ID: Aromatize)
Wedge Clean (ID: Wedge Clean)
Clean 2D (ID: Clean2D)

$$$$
CHEMBL388676
  Mrv2010 08032110442D          

 24 25  0  0  1  0            999 V2000
   -0.9618    0.6850    0.0000 O   0  0  0  0  0  0  0  0  0  0  0  0
   -0.7068   -0.0997    0.0000 C   0  0  0  0  0  0  0  0  0  0  0  0
    0.0778   -0.3546    0.0000 C   0  0  0  0  0  0  0  0  0  0  0  0
    0.7923    0.0579    0.0000 C   0  0  0  0  0  0  0  0  0  0  0  0
    1.5067   -0.3546    0.0000 C   0  0  0  0  0  0  0  0  0  0  0  0
    1.5067   -1.1796    0.0000 C   0  0  0  0  0  0  0  0  0  0  0  0
    0.7923   -1.5921    0.0000 C   0  0  0  0  0  0  0  0  0  0  0  0
    0.0778   -1.1796    0.0000 C   0  0  0  0  0  0  0  0  0  0  0  0
   -0.7068   -1.4345    0.0000 C   0  0  0  0  0  0  0  0  0  0  0  0
   -0.9618   -2.2192    0.0000 O   0  0  0  0  0  0  0  0  0  0  0  0
   -1.1918   -0.7671    0.0000 N   0  0  0  0  0  0  0  0  0  0  0  0
   -2.0168   -0.7671    0.0000 S   0  0  0  0  0  0  0  0  0  0  0  0
   -2.4293   -1.4816    0.0000 C   0  0  0  0  0  0  0  0  0  0  0  0
   -2.8418   -2.1960    0.0000 Cl  0  0  0  0  0  0  0  0  0  0  0  0
   -3.1437   -1.0691    0.0000 Cl  0  0  0  0  0  0  0  0  0  0  0  0
   -1.7148   -1.8941    0.0000 Cl  0  0  0  0  0  0  0  0  0  0  0  0
    1.4133    0.6010    0.0000 H   0  0  0  0  0  0  0  0  0  0  0  0
    0.9094    0.8745    0.0000 H   0  0  0  0  0  0  0  0  0  0  0  0
    2.3307   -0.3144    0.0000 H   0  0  0  0  0  0  0  0  0  0  0  0
    2.2212   -1.5921    0.0000 H   0  0  0  0  0  0  0  0  0  0  0  0
    0.4220   -2.3293    0.0000 H   0  0  0  0  0  0  0  0  0  0  0  0
    1.1625   -2.3293    0.0000 H   0  0  0  0  0  0  0  0  0  0  0  0
   -0.0085    0.4659    0.0000 H   0  0  0  0  0  0  0  0  0  0  0  0
   -0.0085   -2.0001    0.0000 H   0  0  0  0  0  0  0  0  0  0  0  0
  1  2  2  0  0  0  0
  2  3  1  0  0  0  0
  2 11  1  0  0  0  0
  3  4  1  0  0  0  0
  3  8  1  0  0  0  0
  4  5  1  0  0  0  0
  5  6  2  0  0  0  0
  6  7  1  0  0  0  0
  7  8  1  0  0  0  0
  8  9  1  0  0  0  0
  9 10  2  0  0  0  0
  9 11  1  0  0  0  0
 11 12  1  0  0  0  0
 12 13  1  0  0  0  0
 13 14  1  0  0  0  0
 13 15  1  0  0  0  0
 13 16  1  0  0  0  0
  4 17  1  0  0  0  0
  4 18  1  0  0  0  0
  5 19  1  0  0  0  0
  6 20  1  0  0  0  0
  7 21  1  0  0  0  0
  7 22  1  0  0  0  0
  3 23  1  0  0  0  0
  8 24  1  0  0  0  0
M  END
> <Molecule ChEMBL ID>
CHEMBL388676

> <Class(50)>
1

> <Class(80)>
1

>  <salt>
false

>  <StandardizerResult>
Tautomerize (ID: Tautomerize)
Transform (ID: Transform NO2 (1))
Wedge Clean (ID: Wedge Clean)
Clean 2D (ID: Clean2D)

$$$$
CHEMBL3348861
  Mrv2010 08032110442D          

 35 37  0  0  1  0            999 V2000
    0.1676    0.1140    0.0000 O   0  0  0  0  0  0  0  0  0  0  0  0
    0.1676   -0.7110    0.0000 C   0  0  0  0  0  0  0  0  0  0  0  0
    0.8820   -1.1235    0.0000 C   0  0  0  0  0  0  0  0  0  0  0  0
    1.5965   -0.7110    0.0000 C   0  0  0  0  0  0  0  0  0  0  0  0
    1.5965    0.1140    0.0000 O   0  0  0  0  0  0  0  0  0  0  0  0
    2.3110   -1.1235    0.0000 C   0  0  0  0  0  0  0  0  0  0  0  0
    2.3110   -1.9485    0.0000 C   0  0  0  0  0  0  0  0  0  0  0  0
    3.0254   -2.3610    0.0000 O   0  0  0  0  0  0  0  0  0  0  0  0
    1.5965   -2.3610    0.0000 C   0  0  0  0  0  0  0  0  0  0  0  0
    0.8820   -1.9485    0.0000 C   0  0  0  0  0  0  0  0  0  0  0  0
    0.1676   -2.3610    0.0000 O   0  0  0  0  0  0  0  0  0  0  0  0
   -0.5469   -1.9485    0.0000 C   0  0  1  0  0  0  0  0  0  0  0  0
   -1.2614   -2.3610    0.0000 C   0  0  0  0  0  0  0  0  0  0  0  0
   -1.2614   -3.1860    0.0000 C   0  0  0  0  0  0  0  0  0  0  0  0
   -1.9759   -3.5985    0.0000 C   0  0  0  0  0  0  0  0  0  0  0  0
   -1.9759   -4.4235    0.0000 O   0  0  0  0  0  0  0  0  0  0  0  0
   -2.6903   -3.1860    0.0000 C   0  0  0  0  0  0  0  0  0  0  0  0
   -3.4048   -3.5985    0.0000 O   0  0  0  0  0  0  0  0  0  0  0  0
   -2.6903   -2.3610    0.0000 C   0  0  0  0  0  0  0  0  0  0  0  0
   -3.4048   -1.9485    0.0000 O   0  0  0  0  0  0  0  0  0  0  0  0
   -1.9759   -1.9485    0.0000 C   0  0  0  0  0  0  0  0  0  0  0  0
   -0.5469   -1.1235    0.0000 C   0  0  1  0  0  0  0  0  0  0  0  0
   -1.2614   -0.7110    0.0000 O   0  0  0  0  0  0  0  0  0  0  0  0
   -0.5469   -3.5985    0.0000 H   0  0  0  0  0  0  0  0  0  0  0  0
   -1.9759   -0.2985    0.0000 H   0  0  0  0  0  0  0  0  0  0  0  0
    3.0254   -0.7110    0.0000 H   0  0  0  0  0  0  0  0  0  0  0  0
   -1.2614   -1.5360    0.0000 H   0  0  0  0  0  0  0  0  0  0  0  0
    3.0254   -3.1860    0.0000 H   0  0  0  0  0  0  0  0  0  0  0  0
   -3.4048   -1.1235    0.0000 H   0  0  0  0  0  0  0  0  0  0  0  0
   -0.5469   -0.2985    0.0000 H   0  0  0  0  0  0  0  0  0  0  0  0
    1.5965   -3.1860    0.0000 H   0  0  0  0  0  0  0  0  0  0  0  0
   -2.3884   -1.2340    0.0000 H   0  0  0  0  0  0  0  0  0  0  0  0
   -4.1193   -3.1860    0.0000 H   0  0  0  0  0  0  0  0  0  0  0  0
    2.3110    0.5265    0.0000 H   0  0  0  0  0  0  0  0  0  0  0  0
   -2.6903   -4.8360    0.0000 H   0  0  0  0  0  0  0  0  0  0  0  0
  1  2  2  0  0  0  0
  2  3  1  0  0  0  0
 22  2  1  0  0  0  0
  3  4  4  0  0  0  0
  3 10  4  0  0  0  0
  4  5  1  0  0  0  0
  4  6  4  0  0  0  0
  6  7  4  0  0  0  0
  7  8  1  0  0  0  0
  7  9  4  0  0  0  0
  9 10  4  0  0  0  0
 10 11  1  0  0  0  0
 12 11  1  0  0  0  0
 12 13  1  0  0  0  0
 12 22  1  0  0  0  0
 13 14  4  0  0  0  0
 13 21  4  0  0  0  0
 14 15  4  0  0  0  0
 15 16  1  0  0  0  0
 15 17  4  0  0  0  0
 17 18  1  0  0  0  0
 17 19  4  0  0  0  0
 19 20  1  0  0  0  0
 19 21  4  0  0  0  0
 22 23  1  0  0  0  0
 14 24  1  0  0  0  0
 23 25  1  0  0  0  0
  6 26  1  0  0  0  0
 12 27  1  6  0  0  0
  8 28  1  0  0  0  0
 20 29  1  0  0  0  0
 22 30  1  6  0  0  0
  9 31  1  0  0  0  0
 21 32  1  0  0  0  0
 18 33  1  0  0  0  0
  5 34  1  0  0  0  0
 16 35  1  0  0  0  0
M  END
> <Molecule ChEMBL ID>
CHEMBL3348861

> <Class(50)>
1

> <Class(80)>
1

>  <salt>
false

>  <StandardizerResult>
Tautomerize (ID: Tautomerize)
Transform (ID: Transform NO2 (1))
Aromatize (ID: Aromatize)
Wedge Clean (ID: Wedge Clean)
Clean 2D (ID: Clean2D)

$$$$
CHEMBL4303595
  Mrv2010 08032110442D          

 18 19  0  0  0  0            999 V2000
   -2.1434   -1.5395    0.0000 O   0  0  0  0  0  0  0  0  0  0  0  0
   -1.4289   -1.1270    0.0000 C   0  0  0  0  0  0  0  0  0  0  0  0
   -1.4289   -0.3020    0.0000 C   0  0  0  0  0  0  0  0  0  0  0  0
   -0.7145    0.1105    0.0000 C   0  0  0  0  0  0  0  0  0  0  0  0
   -0.0000   -0.3020    0.0000 C   0  0  0  0  0  0  0  0  0  0  0  0
    0.7145    0.1105    0.0000 C   0  0  0  0  0  0  0  0  0  0  0  0
    1.4289   -0.3020    0.0000 C   0  0  0  0  0  0  0  0  0  0  0  0
    2.1434    0.1105    0.0000 Br  0  0  0  0  0  0  0  0  0  0  0  0
    1.4289   -1.1270    0.0000 C   0  0  0  0  0  0  0  0  0  0  0  0
    0.7145   -1.5395    0.0000 C   0  0  0  0  0  0  0  0  0  0  0  0
   -0.0000   -1.1270    0.0000 C   0  0  0  0  0  0  0  0  0  0  0  0
   -0.7145   -1.5395    0.0000 C   0  0  0  0  0  0  0  0  0  0  0  0
   -0.7145   -2.3645    0.0000 O   0  0  0  0  0  0  0  0  0  0  0  0
    0.7145   -2.3645    0.0000 H   0  0  0  0  0  0  0  0  0  0  0  0
    0.7145    0.9355    0.0000 H   0  0  0  0  0  0  0  0  0  0  0  0
   -2.1434    0.1105    0.0000 H   0  0  0  0  0  0  0  0  0  0  0  0
    2.1434   -1.5395    0.0000 H   0  0  0  0  0  0  0  0  0  0  0  0
   -0.7145    0.9355    0.0000 H   0  0  0  0  0  0  0  0  0  0  0  0
  1  2  2  0  0  0  0
  2  3  1  0  0  0  0
  2 12  1  0  0  0  0
  3  4  2  0  0  0  0
  4  5  1  0  0  0  0
  5  6  4  0  0  0  0
  5 11  4  0  0  0  0
  6  7  4  0  0  0  0
  7  8  1  0  0  0  0
  7  9  4  0  0  0  0
  9 10  4  0  0  0  0
 10 11  4  0  0  0  0
 11 12  1  0  0  0  0
 12 13  2  0  0  0  0
 10 14  1  0  0  0  0
  6 15  1  0  0  0  0
  3 16  1  0  0  0  0
  9 17  1  0  0  0  0
  4 18  1  0  0  0  0
M  END
> <Molecule ChEMBL ID>
CHEMBL4303595

> <Class(50)>
1

> <Class(80)>
1

>  <salt>
false

>  <StandardizerResult>
Tautomerize (ID: Tautomerize)
Neutralize (ID: Neutralize)
Aromatize (ID: Aromatize)
Wedge Clean (ID: Wedge Clean)
Clean 2D (ID: Clean2D)

$$$$
CHEMBL66953
  Mrv2010 08032110442D          

 24 25  0  0  0  0            999 V2000
    0.7873    0.7283    0.0000 O   0  0  0  0  0  0  0  0  0  0  0  0
    0.9709   -0.0760    0.0000 C   0  0  0  0  0  0  0  0  0  0  0  0
    1.7752   -0.2596    0.0000 C   0  0  0  0  0  0  0  0  0  0  0  0
    2.2896    0.3854    0.0000 O   0  0  0  0  0  0  0  0  0  0  0  0
    2.1332   -1.0029    0.0000 C   0  0  0  0  0  0  0  0  0  0  0  0
    1.7752   -1.7462    0.0000 C   0  0  0  0  0  0  0  0  0  0  0  0
    0.9709   -1.9298    0.0000 C   0  0  0  0  0  0  0  0  0  0  0  0
    0.3259   -1.4154    0.0000 C   0  0  0  0  0  0  0  0  0  0  0  0
   -0.3886   -1.8279    0.0000 C   0  0  0  0  0  0  0  0  0  0  0  0
   -1.1031   -1.4154    0.0000 C   0  0  0  0  0  0  0  0  0  0  0  0
   -1.8175   -1.8279    0.0000 O   0  0  0  0  0  0  0  0  0  0  0  0
   -1.1031   -0.5904    0.0000 C   0  0  0  0  0  0  0  0  0  0  0  0
   -1.8175   -0.1779    0.0000 O   0  0  0  0  0  0  0  0  0  0  0  0
   -0.3886   -0.1779    0.0000 C   0  0  0  0  0  0  0  0  0  0  0  0
   -0.3886    0.6471    0.0000 O   0  0  0  0  0  0  0  0  0  0  0  0
    0.3259   -0.5904    0.0000 C   0  0  0  0  0  0  0  0  0  0  0  0
   -1.8175    0.6471    0.0000 H   0  0  0  0  0  0  0  0  0  0  0  0
    0.7873   -2.7341    0.0000 H   0  0  0  0  0  0  0  0  0  0  0  0
    2.2896   -2.3912    0.0000 H   0  0  0  0  0  0  0  0  0  0  0  0
   -0.3886   -2.6529    0.0000 H   0  0  0  0  0  0  0  0  0  0  0  0
    0.3259    1.0596    0.0000 H   0  0  0  0  0  0  0  0  0  0  0  0
    3.1054    0.2624    0.0000 H   0  0  0  0  0  0  0  0  0  0  0  0
   -2.5320   -1.4154    0.0000 H   0  0  0  0  0  0  0  0  0  0  0  0
    2.9582   -1.0029    0.0000 H   0  0  0  0  0  0  0  0  0  0  0  0
  1  2  2  0  0  0  0
  2  3  1  0  0  0  0
  2 16  1  0  0  0  0
  3  4  1  0  0  0  0
  3  5  2  0  0  0  0
  5  6  1  0  0  0  0
  6  7  2  0  0  0  0
  7  8  1  0  0  0  0
  8  9  4  0  0  0  0
  8 16  4  0  0  0  0
  9 10  4  0  0  0  0
 10 11  1  0  0  0  0
 10 12  4  0  0  0  0
 12 13  1  0  0  0  0
 12 14  4  0  0  0  0
 14 15  1  0  0  0  0
 14 16  4  0  0  0  0
 13 17  1  0  0  0  0
  7 18  1  0  0  0  0
  6 19  1  0  0  0  0
  9 20  1  0  0  0  0
 15 21  1  0  0  0  0
  4 22  1  0  0  0  0
 11 23  1  0  0  0  0
  5 24  1  0  0  0  0
M  END
> <Molecule ChEMBL ID>
CHEMBL66953

> <Class(50)>
1

> <Class(80)>
1

>  <salt>
false

>  <StandardizerResult>
Tautomerize (ID: Tautomerize)
Neutralize (ID: Neutralize)
Aromatize (ID: Aromatize)
Wedge Clean (ID: Wedge Clean)
Clean 2D (ID: Clean2D)

$$$$
CHEMBL164
  Mrv2010 08032110442D          

 33 35  0  0  0  0            999 V2000
    0.9946   -4.1668    0.0000 O   0  0  0  0  0  0  0  0  0  0  0  0
    0.9946   -3.3418    0.0000 C   0  0  0  0  0  0  0  0  0  0  0  0
    0.2802   -2.9293    0.0000 C   0  0  0  0  0  0  0  0  0  0  0  0
   -0.4343   -3.3418    0.0000 O   0  0  0  0  0  0  0  0  0  0  0  0
    0.2802   -2.1043    0.0000 C   0  0  0  0  0  0  0  0  0  0  0  0
   -0.4343   -1.6918    0.0000 C   0  0  0  0  0  0  0  0  0  0  0  0
   -1.1488   -2.1043    0.0000 C   0  0  0  0  0  0  0  0  0  0  0  0
   -1.8633   -1.6918    0.0000 C   0  0  0  0  0  0  0  0  0  0  0  0
   -2.5777   -2.1043    0.0000 O   0  0  0  0  0  0  0  0  0  0  0  0
   -1.8633   -0.8668    0.0000 C   0  0  0  0  0  0  0  0  0  0  0  0
   -2.5777   -0.4543    0.0000 O   0  0  0  0  0  0  0  0  0  0  0  0
   -1.1488   -0.4543    0.0000 C   0  0  0  0  0  0  0  0  0  0  0  0
   -1.1488    0.3707    0.0000 O   0  0  0  0  0  0  0  0  0  0  0  0
   -0.4343   -0.8668    0.0000 C   0  0  0  0  0  0  0  0  0  0  0  0
    0.9946   -1.6918    0.0000 O   0  0  0  0  0  0  0  0  0  0  0  0
    1.7091   -2.1043    0.0000 C   0  0  0  0  0  0  0  0  0  0  0  0
    2.4236   -1.6918    0.0000 C   0  0  0  0  0  0  0  0  0  0  0  0
    3.1380   -2.1043    0.0000 C   0  0  0  0  0  0  0  0  0  0  0  0
    3.8525   -1.6918    0.0000 O   0  0  0  0  0  0  0  0  0  0  0  0
    3.1380   -2.9293    0.0000 C   0  0  0  0  0  0  0  0  0  0  0  0
    2.4236   -3.3418    0.0000 C   0  0  0  0  0  0  0  0  0  0  0  0
    2.4236   -4.1668    0.0000 O   0  0  0  0  0  0  0  0  0  0  0  0
    1.7091   -2.9293    0.0000 C   0  0  0  0  0  0  0  0  0  0  0  0
   -1.1488   -2.9293    0.0000 H   0  0  0  0  0  0  0  0  0  0  0  0
    0.2802   -0.4543    0.0000 H   0  0  0  0  0  0  0  0  0  0  0  0
    3.8525   -3.3418    0.0000 H   0  0  0  0  0  0  0  0  0  0  0  0
    1.7091   -4.5793    0.0000 H   0  0  0  0  0  0  0  0  0  0  0  0
   -3.2922   -1.6918    0.0000 H   0  0  0  0  0  0  0  0  0  0  0  0
    4.5670   -2.1043    0.0000 H   0  0  0  0  0  0  0  0  0  0  0  0
   -0.4343   -2.5168    0.0000 H   0  0  0  0  0  0  0  0  0  0  0  0
   -2.5777    0.3707    0.0000 H   0  0  0  0  0  0  0  0  0  0  0  0
   -0.4343    0.7832    0.0000 H   0  0  0  0  0  0  0  0  0  0  0  0
    2.4236   -0.8668    0.0000 H   0  0  0  0  0  0  0  0  0  0  0  0
  1  2  2  0  0  0  0
  2  3  1  0  0  0  0
  2 23  1  0  0  0  0
  3  4  1  0  0  0  0
  3  5  2  0  0  0  0
  5  6  1  0  0  0  0
  5 15  1  0  0  0  0
  6  7  4  0  0  0  0
  6 14  4  0  0  0  0
  7  8  4  0  0  0  0
  8  9  1  0  0  0  0
  8 10  4  0  0  0  0
 10 11  1  0  0  0  0
 10 12  4  0  0  0  0
 12 13  1  0  0  0  0
 12 14  4  0  0  0  0
 15 16  1  0  0  0  0
 16 17  4  0  0  0  0
 16 23  4  0  0  0  0
 17 18  4  0  0  0  0
 18 19  1  0  0  0  0
 18 20  4  0  0  0  0
 20 21  4  0  0  0  0
 21 22  1  0  0  0  0
 21 23  4  0  0  0  0
  4 24  1  0  0  0  0
 14 25  1  0  0  0  0
 20 26  1  0  0  0  0
 22 27  1  0  0  0  0
  9 28  1  0  0  0  0
 19 29  1  0  0  0  0
  7 30  1  0  0  0  0
 11 31  1  0  0  0  0
 13 32  1  0  0  0  0
 17 33  1  0  0  0  0
M  END
> <Molecule ChEMBL ID>
CHEMBL164

> <Class(50)>
1

> <Class(80)>
1

>  <salt>
false

>  <StandardizerResult>
Tautomerize (ID: Tautomerize)
Neutralize (ID: Neutralize)
Aromatize (ID: Aromatize)
Wedge Clean (ID: Wedge Clean)
Clean 2D (ID: Clean2D)

$$$$
CHEMBL1271993
  Mrv2010 08032110442D          

 33 35  0  0  0  0            999 V2000
    0.7971    0.1050    0.0000 O   0  0  0  0  0  0  0  0  0  0  0  0
    0.7971   -0.7200    0.0000 C   0  0  0  0  0  0  0  0  0  0  0  0
    1.4645   -1.2049    0.0000 C   0  0  0  0  0  0  0  0  0  0  0  0
    1.2096   -1.9895    0.0000 C   0  0  0  0  0  0  0  0  0  0  0  0
    1.6945   -2.6570    0.0000 N   0  0  0  0  0  0  0  0  0  0  0  0
    2.5150   -2.5707    0.0000 C   0  0  0  0  0  0  0  0  0  0  0  0
    2.9999   -3.2382    0.0000 C   0  0  0  0  0  0  0  0  0  0  0  0
    2.6643   -3.9919    0.0000 O   0  0  0  0  0  0  0  0  0  0  0  0
    1.8439   -4.0781    0.0000 C   0  0  0  0  0  0  0  0  0  0  0  0
    1.3589   -3.4107    0.0000 C   0  0  0  0  0  0  0  0  0  0  0  0
    0.3846   -1.9895    0.0000 C   0  0  0  0  0  0  0  0  0  0  0  0
   -0.1003   -2.6570    0.0000 O   0  0  0  0  0  0  0  0  0  0  0  0
    0.1296   -1.2049    0.0000 N   0  0  0  0  0  0  0  0  0  0  0  0
   -0.6550   -0.9500    0.0000 C   0  0  0  0  0  0  0  0  0  0  0  0
   -1.2681   -1.5020    0.0000 C   0  0  0  0  0  0  0  0  0  0  0  0
   -2.0527   -1.2471    0.0000 C   0  0  0  0  0  0  0  0  0  0  0  0
   -2.2242   -0.4401    0.0000 C   0  0  0  0  0  0  0  0  0  0  0  0
   -3.0088   -0.1852    0.0000 Cl  0  0  0  0  0  0  0  0  0  0  0  0
   -1.6111    0.1119    0.0000 C   0  0  0  0  0  0  0  0  0  0  0  0
   -1.7827    0.9189    0.0000 Cl  0  0  0  0  0  0  0  0  0  0  0  0
   -0.8265   -0.1430    0.0000 C   0  0  0  0  0  0  0  0  0  0  0  0
    2.2491   -0.9500    0.0000 Cl  0  0  0  0  0  0  0  0  0  0  0  0
   -2.6658   -1.7991    0.0000 H   0  0  0  0  0  0  0  0  0  0  0  0
   -0.2134    0.4090    0.0000 H   0  0  0  0  0  0  0  0  0  0  0  0
    3.7718   -3.5294    0.0000 H   0  0  0  0  0  0  0  0  0  0  0  0
    3.6944   -2.7929    0.0000 H   0  0  0  0  0  0  0  0  0  0  0  0
    1.2058   -4.6010    0.0000 H   0  0  0  0  0  0  0  0  0  0  0  0
    1.8822   -4.9022    0.0000 H   0  0  0  0  0  0  0  0  0  0  0  0
   -1.0965   -2.3090    0.0000 H   0  0  0  0  0  0  0  0  0  0  0  0
    0.5870   -3.1195    0.0000 H   0  0  0  0  0  0  0  0  0  0  0  0
    0.6644   -3.8560    0.0000 H   0  0  0  0  0  0  0  0  0  0  0  0
    3.1531   -2.0478    0.0000 H   0  0  0  0  0  0  0  0  0  0  0  0
    2.4766   -1.7466    0.0000 H   0  0  0  0  0  0  0  0  0  0  0  0
  1  2  2  0  0  0  0
  2  3  1  0  0  0  0
  2 13  1  0  0  0  0
  3  4  2  0  0  0  0
  3 22  1  0  0  0  0
  4  5  1  0  0  0  0
  4 11  1  0  0  0  0
  5  6  1  0  0  0  0
  5 10  1  0  0  0  0
  6  7  1  0  0  0  0
  7  8  1  0  0  0  0
  8  9  1  0  0  0  0
  9 10  1  0  0  0  0
 11 12  2  0  0  0  0
 11 13  1  0  0  0  0
 13 14  1  0  0  0  0
 14 15  4  0  0  0  0
 14 21  4  0  0  0  0
 15 16  4  0  0  0  0
 16 17  4  0  0  0  0
 17 18  1  0  0  0  0
 17 19  4  0  0  0  0
 19 20  1  0  0  0  0
 19 21  4  0  0  0  0
 16 23  1  0  0  0  0
 21 24  1  0  0  0  0
  7 25  1  0  0  0  0
  7 26  1  0  0  0  0
  9 27  1  0  0  0  0
  9 28  1  0  0  0  0
 15 29  1  0  0  0  0
 10 30  1  0  0  0  0
 10 31  1  0  0  0  0
  6 32  1  0  0  0  0
  6 33  1  0  0  0  0
M  END
> <Molecule ChEMBL ID>
CHEMBL1271993

> <Class(50)>
1

> <Class(80)>
1

>  <salt>
false

>  <StandardizerResult>
Tautomerize (ID: Tautomerize)
Neutralize (ID: Neutralize)
Aromatize (ID: Aromatize)
Wedge Clean (ID: Wedge Clean)
Clean 2D (ID: Clean2D)

$$$$
CHEMBL192627
  Mrv2010 08032110442D          

 12 12  0  0  0  0            999 V2000
    0.0000    1.6500    0.0000 O   0  0  0  0  0  0  0  0  0  0  0  0
   -0.0000    0.8250    0.0000 C   0  0  0  0  0  0  0  0  0  0  0  0
    0.7145    0.4125    0.0000 C   0  0  0  0  0  0  0  0  0  0  0  0
    0.7145   -0.4125    0.0000 C   0  0  0  0  0  0  0  0  0  0  0  0
    1.4289   -0.8250    0.0000 Cl  0  0  0  0  0  0  0  0  0  0  0  0
   -0.0000   -0.8250    0.0000 C   0  0  0  0  0  0  0  0  0  0  0  0
   -0.0000   -1.6500    0.0000 O   0  0  0  0  0  0  0  0  0  0  0  0
   -0.7145   -0.4125    0.0000 C   0  0  0  0  0  0  0  0  0  0  0  0
   -0.7145    0.4125    0.0000 C   0  0  0  0  0  0  0  0  0  0  0  0
   -1.4289    0.8250    0.0000 Cl  0  0  0  0  0  0  0  0  0  0  0  0
   -1.4289   -0.8250    0.0000 Cl  0  0  0  0  0  0  0  0  0  0  0  0
    1.4289    0.8250    0.0000 Cl  0  0  0  0  0  0  0  0  0  0  0  0
  1  2  2  0  0  0  0
  2  3  1  0  0  0  0
  2  9  1  0  0  0  0
  3  4  2  0  0  0  0
  3 12  1  0  0  0  0
  4  5  1  0  0  0  0
  4  6  1  0  0  0  0
  6  7  2  0  0  0  0
  6  8  1  0  0  0  0
  8  9  2  0  0  0  0
  8 11  1  0  0  0  0
  9 10  1  0  0  0  0
M  END
> <Molecule ChEMBL ID>
CHEMBL192627

> <Class(50)>
1

> <Class(80)>
1

>  <salt>
false

>  <StandardizerResult>
Tautomerize (ID: Tautomerize)
Wedge Clean (ID: Wedge Clean)
Clean 2D (ID: Clean2D)

$$$$
CHEMBL297453
  Mrv2010 08032110442D          

 51 54  0  0  1  0            999 V2000
    1.0345    0.2838    0.0000 O   0  0  0  0  0  0  0  0  0  0  0  0
    0.3201   -0.1287    0.0000 C   0  0  0  0  0  0  0  0  0  0  0  0
    0.3201   -0.9537    0.0000 O   0  0  0  0  0  0  0  0  0  0  0  0
    1.0345   -1.3662    0.0000 C   0  0  1  0  0  0  0  0  0  0  0  0
    1.7490   -0.9537    0.0000 C   0  0  0  0  0  0  0  0  0  0  0  0
    2.4635   -1.3662    0.0000 C   0  0  0  0  0  0  0  0  0  0  0  0
    3.1780   -0.9537    0.0000 C   0  0  0  0  0  0  0  0  0  0  0  0
    3.1780   -0.1287    0.0000 O   0  0  0  0  0  0  0  0  0  0  0  0
    3.8924   -1.3662    0.0000 C   0  0  0  0  0  0  0  0  0  0  0  0
    3.8924   -2.1912    0.0000 C   0  0  0  0  0  0  0  0  0  0  0  0
    4.6069   -2.6037    0.0000 O   0  0  0  0  0  0  0  0  0  0  0  0
    3.1780   -2.6037    0.0000 C   0  0  0  0  0  0  0  0  0  0  0  0
    2.4635   -2.1912    0.0000 C   0  0  0  0  0  0  0  0  0  0  0  0
    1.7490   -2.6037    0.0000 O   0  0  0  0  0  0  0  0  0  0  0  0
    1.0345   -2.1912    0.0000 C   0  0  1  0  0  0  0  0  0  0  0  0
    0.3201   -2.6037    0.0000 C   0  0  0  0  0  0  0  0  0  0  0  0
    0.3201   -3.4287    0.0000 C   0  0  0  0  0  0  0  0  0  0  0  0
   -0.3944   -3.8412    0.0000 C   0  0  0  0  0  0  0  0  0  0  0  0
   -0.3944   -4.6662    0.0000 O   0  0  0  0  0  0  0  0  0  0  0  0
   -1.1089   -3.4287    0.0000 C   0  0  0  0  0  0  0  0  0  0  0  0
   -1.8233   -3.8412    0.0000 O   0  0  0  0  0  0  0  0  0  0  0  0
   -1.1089   -2.6037    0.0000 C   0  0  0  0  0  0  0  0  0  0  0  0
   -1.8233   -2.1912    0.0000 O   0  0  0  0  0  0  0  0  0  0  0  0
   -0.3944   -2.1912    0.0000 C   0  0  0  0  0  0  0  0  0  0  0  0
   -0.3944    0.2838    0.0000 C   0  0  0  0  0  0  0  0  0  0  0  0
   -1.1089   -0.1287    0.0000 C   0  0  0  0  0  0  0  0  0  0  0  0
   -1.8233    0.2838    0.0000 C   0  0  0  0  0  0  0  0  0  0  0  0
   -2.5378   -0.1287    0.0000 O   0  0  0  0  0  0  0  0  0  0  0  0
   -1.8233    1.1088    0.0000 C   0  0  0  0  0  0  0  0  0  0  0  0
   -2.5378    1.5213    0.0000 O   0  0  0  0  0  0  0  0  0  0  0  0
   -1.1089    1.5213    0.0000 C   0  0  0  0  0  0  0  0  0  0  0  0
   -1.1089    2.3463    0.0000 O   0  0  0  0  0  0  0  0  0  0  0  0
   -0.3944    1.1088    0.0000 C   0  0  0  0  0  0  0  0  0  0  0  0
   -1.8233   -1.3662    0.0000 H   0  0  0  0  0  0  0  0  0  0  0  0
    3.1780   -3.4287    0.0000 H   0  0  0  0  0  0  0  0  0  0  0  0
   -1.1089   -5.0787    0.0000 H   0  0  0  0  0  0  0  0  0  0  0  0
   -1.1089   -0.9537    0.0000 H   0  0  0  0  0  0  0  0  0  0  0  0
   -2.5378    2.3463    0.0000 H   0  0  0  0  0  0  0  0  0  0  0  0
    1.7490   -1.7787    0.0000 H   0  0  0  0  0  0  0  0  0  0  0  0
   -0.3944    2.7588    0.0000 H   0  0  0  0  0  0  0  0  0  0  0  0
    4.6069   -0.9537    0.0000 H   0  0  0  0  0  0  0  0  0  0  0  0
   -2.5378   -3.4287    0.0000 H   0  0  0  0  0  0  0  0  0  0  0  0
    2.1193   -0.2165    0.0000 H   0  0  0  0  0  0  0  0  0  0  0  0
    1.3788   -0.2165    0.0000 H   0  0  0  0  0  0  0  0  0  0  0  0
    4.6069   -3.4287    0.0000 H   0  0  0  0  0  0  0  0  0  0  0  0
    3.8924    0.2838    0.0000 H   0  0  0  0  0  0  0  0  0  0  0  0
    0.3201    1.5213    0.0000 H   0  0  0  0  0  0  0  0  0  0  0  0
    1.0345   -3.8412    0.0000 H   0  0  0  0  0  0  0  0  0  0  0  0
   -0.8069   -1.4767    0.0000 H   0  0  0  0  0  0  0  0  0  0  0  0
   -3.2523    0.2838    0.0000 H   0  0  0  0  0  0  0  0  0  0  0  0
    0.3201   -1.7787    0.0000 H   0  0  0  0  0  0  0  0  0  0  0  0
  1  2  2  0  0  0  0
  2  3  1  0  0  0  0
  2 25  1  0  0  0  0
  4  3  1  0  0  0  0
  4  5  1  0  0  0  0
  4 15  1  0  0  0  0
  5  6  1  0  0  0  0
  6  7  4  0  0  0  0
  6 13  4  0  0  0  0
  7  8  1  0  0  0  0
  7  9  4  0  0  0  0
  9 10  4  0  0  0  0
 10 11  1  0  0  0  0
 10 12  4  0  0  0  0
 12 13  4  0  0  0  0
 13 14  1  0  0  0  0
 15 14  1  0  0  0  0
 15 16  1  0  0  0  0
 16 17  4  0  0  0  0
 16 24  4  0  0  0  0
 17 18  4  0  0  0  0
 18 19  1  0  0  0  0
 18 20  4  0  0  0  0
 20 21  1  0  0  0  0
 20 22  4  0  0  0  0
 22 23  1  0  0  0  0
 22 24  4  0  0  0  0
 25 26  4  0  0  0  0
 25 33  4  0  0  0  0
 26 27  4  0  0  0  0
 27 28  1  0  0  0  0
 27 29  4  0  0  0  0
 29 30  1  0  0  0  0
 29 31  4  0  0  0  0
 31 32  1  0  0  0  0
 31 33  4  0  0  0  0
 23 34  1  0  0  0  0
 12 35  1  0  0  0  0
 19 36  1  0  0  0  0
 26 37  1  0  0  0  0
 30 38  1  0  0  0  0
 15 39  1  6  0  0  0
 32 40  1  0  0  0  0
  9 41  1  0  0  0  0
 21 42  1  0  0  0  0
  5 43  1  0  0  0  0
  5 44  1  0  0  0  0
 11 45  1  0  0  0  0
  8 46  1  0  0  0  0
 33 47  1  0  0  0  0
 17 48  1  0  0  0  0
 24 49  1  0  0  0  0
 28 50  1  0  0  0  0
  4 51  1  6  0  0  0
M  END
> <Molecule ChEMBL ID>
CHEMBL297453

> <Class(50)>
1

> <Class(80)>
1

>  <salt>
false

>  <StandardizerResult>
Tautomerize (ID: Tautomerize)
Transform (ID: Transform NO2 (1))
Aromatize (ID: Aromatize)
Wedge Clean (ID: Wedge Clean)
Clean 2D (ID: Clean2D)

$$$$
CHEMBL128251
  Mrv2010 08032110442D          

 57 57  0  0  0  0            999 V2000
   -2.1980   -2.2375    0.0000 O   0  0  0  0  0  0  0  0  0  0  0  0
   -1.4835   -1.8250    0.0000 C   0  0  0  0  0  0  0  0  0  0  0  0
   -1.4835   -1.0000    0.0000 O   0  0  0  0  0  0  0  0  0  0  0  0
   -0.7690   -2.2375    0.0000 C   0  0  0  0  0  0  0  0  0  0  0  0
   -0.0546   -1.8250    0.0000 C   0  0  0  0  0  0  0  0  0  0  0  0
    0.6599   -2.2375    0.0000 C   0  0  0  0  0  0  0  0  0  0  0  0
    1.3744   -1.8250    0.0000 C   0  0  0  0  0  0  0  0  0  0  0  0
    2.0889   -2.2375    0.0000 C   0  0  0  0  0  0  0  0  0  0  0  0
    2.8033   -1.8250    0.0000 C   0  0  0  0  0  0  0  0  0  0  0  0
    3.5178   -2.2375    0.0000 C   0  0  0  0  0  0  0  0  0  0  0  0
    4.2323   -1.8250    0.0000 C   0  0  0  0  0  0  0  0  0  0  0  0
    4.9467   -2.2375    0.0000 C   0  0  0  0  0  0  0  0  0  0  0  0
    5.6612   -1.8250    0.0000 C   0  0  0  0  0  0  0  0  0  0  0  0
    6.3757   -2.2375    0.0000 C   0  0  0  0  0  0  0  0  0  0  0  0
    7.0902   -1.8250    0.0000 C   0  0  0  0  0  0  0  0  0  0  0  0
    7.8046   -2.2375    0.0000 C   0  0  0  0  0  0  0  0  0  0  0  0
    8.5191   -1.8250    0.0000 C   0  0  0  0  0  0  0  0  0  0  0  0
    9.2336   -2.2375    0.0000 C   0  0  0  0  0  0  0  0  0  0  0  0
    9.9480   -1.8250    0.0000 C   0  0  0  0  0  0  0  0  0  0  0  0
   10.6625   -2.2375    0.0000 C   0  0  0  0  0  0  0  0  0  0  0  0
   10.6625   -3.0625    0.0000 C   0  0  0  0  0  0  0  0  0  0  0  0
   11.3770   -3.4750    0.0000 I   0  0  0  0  0  0  0  0  0  0  0  0
    9.9480   -3.4750    0.0000 C   0  0  0  0  0  0  0  0  0  0  0  0
    9.2336   -3.0625    0.0000 C   0  0  0  0  0  0  0  0  0  0  0  0
    0.2897   -2.9747    0.0000 H   0  0  0  0  0  0  0  0  0  0  0  0
    1.0302   -2.9747    0.0000 H   0  0  0  0  0  0  0  0  0  0  0  0
    7.4604   -1.0877    0.0000 H   0  0  0  0  0  0  0  0  0  0  0  0
    6.7199   -1.0877    0.0000 H   0  0  0  0  0  0  0  0  0  0  0  0
    3.1736   -1.0877    0.0000 H   0  0  0  0  0  0  0  0  0  0  0  0
    2.4331   -1.0877    0.0000 H   0  0  0  0  0  0  0  0  0  0  0  0
    1.7446   -1.0877    0.0000 H   0  0  0  0  0  0  0  0  0  0  0  0
    1.0041   -1.0877    0.0000 H   0  0  0  0  0  0  0  0  0  0  0  0
    9.9480   -4.3000    0.0000 H   0  0  0  0  0  0  0  0  0  0  0  0
   11.3770   -1.8250    0.0000 H   0  0  0  0  0  0  0  0  0  0  0  0
   -1.1393   -2.9747    0.0000 H   0  0  0  0  0  0  0  0  0  0  0  0
   -0.3988   -2.9747    0.0000 H   0  0  0  0  0  0  0  0  0  0  0  0
    0.3157   -1.0877    0.0000 H   0  0  0  0  0  0  0  0  0  0  0  0
   -0.4248   -1.0877    0.0000 H   0  0  0  0  0  0  0  0  0  0  0  0
   -0.7690   -0.5875    0.0000 H   0  0  0  0  0  0  0  0  0  0  0  0
    4.5765   -2.9747    0.0000 H   0  0  0  0  0  0  0  0  0  0  0  0
    5.3170   -2.9747    0.0000 H   0  0  0  0  0  0  0  0  0  0  0  0
    3.1475   -2.9747    0.0000 H   0  0  0  0  0  0  0  0  0  0  0  0
    3.8881   -2.9747    0.0000 H   0  0  0  0  0  0  0  0  0  0  0  0
    8.8894   -1.0877    0.0000 H   0  0  0  0  0  0  0  0  0  0  0  0
    8.1488   -1.0877    0.0000 H   0  0  0  0  0  0  0  0  0  0  0  0
    6.0054   -2.9747    0.0000 H   0  0  0  0  0  0  0  0  0  0  0  0
    6.7459   -2.9747    0.0000 H   0  0  0  0  0  0  0  0  0  0  0  0
    6.0315   -1.0877    0.0000 H   0  0  0  0  0  0  0  0  0  0  0  0
    5.2910   -1.0877    0.0000 H   0  0  0  0  0  0  0  0  0  0  0  0
    8.5191   -3.4750    0.0000 H   0  0  0  0  0  0  0  0  0  0  0  0
    9.9480   -1.0000    0.0000 H   0  0  0  0  0  0  0  0  0  0  0  0
    4.6025   -1.0877    0.0000 H   0  0  0  0  0  0  0  0  0  0  0  0
    3.8620   -1.0877    0.0000 H   0  0  0  0  0  0  0  0  0  0  0  0
    1.7186   -2.9747    0.0000 H   0  0  0  0  0  0  0  0  0  0  0  0
    2.4591   -2.9747    0.0000 H   0  0  0  0  0  0  0  0  0  0  0  0
    7.4344   -2.9747    0.0000 H   0  0  0  0  0  0  0  0  0  0  0  0
    8.1749   -2.9747    0.0000 H   0  0  0  0  0  0  0  0  0  0  0  0
  1  2  2  0  0  0  0
  2  3  1  0  0  0  0
  2  4  1  0  0  0  0
  4  5  1  0  0  0  0
  5  6  1  0  0  0  0
  6  7  1  0  0  0  0
  7  8  1  0  0  0  0
  8  9  1  0  0  0  0
  9 10  1  0  0  0  0
 10 11  1  0  0  0  0
 11 12  1  0  0  0  0
 12 13  1  0  0  0  0
 13 14  1  0  0  0  0
 14 15  1  0  0  0  0
 15 16  1  0  0  0  0
 16 17  1  0  0  0  0
 17 18  1  0  0  0  0
 18 19  4  0  0  0  0
 18 24  4  0  0  0  0
 19 20  4  0  0  0  0
 20 21  4  0  0  0  0
 21 22  1  0  0  0  0
 21 23  4  0  0  0  0
 23 24  4  0  0  0  0
  6 25  1  0  0  0  0
  6 26  1  0  0  0  0
 15 27  1  0  0  0  0
 15 28  1  0  0  0  0
  9 29  1  0  0  0  0
  9 30  1  0  0  0  0
  7 31  1  0  0  0  0
  7 32  1  0  0  0  0
 23 33  1  0  0  0  0
 20 34  1  0  0  0  0
  4 35  1  0  0  0  0
  4 36  1  0  0  0  0
  5 37  1  0  0  0  0
  5 38  1  0  0  0  0
  3 39  1  0  0  0  0
 12 40  1  0  0  0  0
 12 41  1  0  0  0  0
 10 42  1  0  0  0  0
 10 43  1  0  0  0  0
 17 44  1  0  0  0  0
 17 45  1  0  0  0  0
 14 46  1  0  0  0  0
 14 47  1  0  0  0  0
 13 48  1  0  0  0  0
 13 49  1  0  0  0  0
 24 50  1  0  0  0  0
 19 51  1  0  0  0  0
 11 52  1  0  0  0  0
 11 53  1  0  0  0  0
  8 54  1  0  0  0  0
  8 55  1  0  0  0  0
 16 56  1  0  0  0  0
 16 57  1  0  0  0  0
M  END
> <Molecule ChEMBL ID>
CHEMBL128251

> <Class(50)>
1

> <Class(80)>
1

>  <salt>
false

>  <StandardizerResult>
Tautomerize (ID: Tautomerize)
Neutralize (ID: Neutralize)
Aromatize (ID: Aromatize)
Wedge Clean (ID: Wedge Clean)
Clean 2D (ID: Clean2D)

$$$$
CHEMBL1161936
  Mrv2010 08032110442D          

 28 29  0  0  0  0            999 V2000
   -3.0301    4.2760    0.0000 O   0  0  0  0  0  0  0  0  0  0  0  0
   -2.3156    3.8635    0.0000 C   0  0  0  0  0  0  0  0  0  0  0  0
   -1.6011    4.2760    0.0000 O   0  0  0  0  0  0  0  0  0  0  0  0
   -2.3156    3.0385    0.0000 C   0  0  0  0  0  0  0  0  0  0  0  0
   -1.6011    2.6260    0.0000 C   0  0  0  0  0  0  0  0  0  0  0  0
   -1.6011    1.8010    0.0000 C   0  0  0  0  0  0  0  0  0  0  0  0
   -2.3156    1.3885    0.0000 C   0  0  0  0  0  0  0  0  0  0  0  0
   -2.3156    0.5635    0.0000 S   0  0  0  0  0  0  0  0  0  0  0  0
   -1.6011    0.1510    0.0000 S   0  0  0  0  0  0  0  0  0  0  0  0
   -1.6011   -0.6740    0.0000 C   0  0  0  0  0  0  0  0  0  0  0  0
   -0.8867   -1.0865    0.0000 C   0  0  0  0  0  0  0  0  0  0  0  0
   -0.8867   -1.9115    0.0000 C   0  0  0  0  0  0  0  0  0  0  0  0
   -1.6011   -2.3240    0.0000 C   0  0  0  0  0  0  0  0  0  0  0  0
   -1.6011   -3.1490    0.0000 C   0  0  0  0  0  0  0  0  0  0  0  0
   -0.8867   -3.5615    0.0000 O   0  0  0  0  0  0  0  0  0  0  0  0
   -2.3156   -3.5615    0.0000 O   0  0  0  0  0  0  0  0  0  0  0  0
   -2.3156   -1.9115    0.0000 C   0  0  0  0  0  0  0  0  0  0  0  0
   -2.3156   -1.0865    0.0000 N   0  0  0  0  0  0  0  0  0  0  0  0
   -3.0301    1.8010    0.0000 N   0  0  0  0  0  0  0  0  0  0  0  0
   -3.0301    2.6260    0.0000 C   0  0  0  0  0  0  0  0  0  0  0  0
   -0.8867    3.8635    0.0000 H   0  0  0  0  0  0  0  0  0  0  0  0
   -0.8867    3.0385    0.0000 H   0  0  0  0  0  0  0  0  0  0  0  0
   -0.1722   -0.6740    0.0000 H   0  0  0  0  0  0  0  0  0  0  0  0
   -3.7445    3.0385    0.0000 H   0  0  0  0  0  0  0  0  0  0  0  0
   -0.1722   -2.3240    0.0000 H   0  0  0  0  0  0  0  0  0  0  0  0
   -3.0301   -2.3240    0.0000 H   0  0  0  0  0  0  0  0  0  0  0  0
   -3.0301   -3.1490    0.0000 H   0  0  0  0  0  0  0  0  0  0  0  0
   -0.8867    1.3885    0.0000 H   0  0  0  0  0  0  0  0  0  0  0  0
  1  2  2  0  0  0  0
  2  3  1  0  0  0  0
  2  4  1  0  0  0  0
  4  5  4  0  0  0  0
  4 20  4  0  0  0  0
  5  6  4  0  0  0  0
  6  7  4  0  0  0  0
  7  8  1  0  0  0  0
  7 19  4  0  0  0  0
  8  9  1  0  0  0  0
  9 10  1  0  0  0  0
 10 11  4  0  0  0  0
 10 18  4  0  0  0  0
 11 12  4  0  0  0  0
 12 13  4  0  0  0  0
 13 14  1  0  0  0  0
 13 17  4  0  0  0  0
 14 15  2  0  0  0  0
 14 16  1  0  0  0  0
 17 18  4  0  0  0  0
 19 20  4  0  0  0  0
  3 21  1  0  0  0  0
  5 22  1  0  0  0  0
 11 23  1  0  0  0  0
 20 24  1  0  0  0  0
 12 25  1  0  0  0  0
 17 26  1  0  0  0  0
 16 27  1  0  0  0  0
  6 28  1  0  0  0  0
M  END
> <Molecule ChEMBL ID>
CHEMBL1161936

> <Class(50)>
1

> <Class(80)>
1

>  <salt>
false

>  <StandardizerResult>
Tautomerize (ID: Tautomerize)
Neutralize (ID: Neutralize)
Aromatize (ID: Aromatize)
Wedge Clean (ID: Wedge Clean)
Clean 2D (ID: Clean2D)

$$$$
CHEMBL2368547
  Mrv2010 08032110442D          

100107  0  0  1  0            999 V2000
    4.8134   -2.1680    0.0000 O   0  0  0  0  0  0  0  0  0  0  0  0
    4.0989   -1.7555    0.0000 C   0  0  0  0  0  0  0  0  0  0  0  0
    4.0989   -0.9305    0.0000 O   0  0  0  0  0  0  0  0  0  0  0  0
    3.3845   -2.1680    0.0000 C   0  0  0  0  0  0  0  0  0  0  0  0
    3.3845   -2.9930    0.0000 C   0  0  0  0  0  0  0  0  0  0  0  0
    2.6700   -3.4055    0.0000 C   0  0  0  0  0  0  0  0  0  0  0  0
    2.6700   -4.2305    0.0000 O   0  0  0  0  0  0  0  0  0  0  0  0
    1.9555   -2.9930    0.0000 C   0  0  0  0  0  0  0  0  0  0  0  0
    1.9555   -2.1680    0.0000 C   0  0  0  0  0  0  0  0  0  0  0  0
    2.6700   -1.7555    0.0000 C   0  0  0  0  0  0  0  0  0  0  0  0
    1.2411   -1.7555    0.0000 C   0  0  0  0  0  0  0  0  0  0  0  0
    1.2411   -0.9305    0.0000 C   0  0  0  0  0  0  0  0  0  0  0  0
    0.5266   -0.5180    0.0000 C   0  0  0  0  0  0  0  0  0  0  0  0
   -0.1879   -0.9305    0.0000 C   0  0  0  0  0  0  0  0  0  0  0  0
   -0.9024   -0.5180    0.0000 C   0  0  0  0  0  0  0  0  0  0  0  0
   -1.6168   -0.9305    0.0000 C   0  0  0  0  0  0  0  0  0  0  0  0
   -2.3313   -0.5180    0.0000 O   0  0  0  0  0  0  0  0  0  0  0  0
   -1.6168   -1.7555    0.0000 O   0  0  0  0  0  0  0  0  0  0  0  0
   -0.9024    0.3070    0.0000 C   0  0  0  0  0  0  0  0  0  0  0  0
   -0.1879    0.7195    0.0000 C   0  0  0  0  0  0  0  0  0  0  0  0
   -0.1879    1.5445    0.0000 O   0  0  0  0  0  0  0  0  0  0  0  0
    0.5266    0.3070    0.0000 C   0  0  0  0  0  0  0  0  0  0  0  0
    1.2411    0.7195    0.0000 C   0  0  0  0  0  0  0  0  0  0  0  0
    1.2411    1.5445    0.0000 O   0  0  0  0  0  0  0  0  0  0  0  0
    1.9555    0.3070    0.0000 C   0  0  0  0  0  0  0  0  0  0  0  0
    2.6700    0.7195    0.0000 C   0  0  0  0  0  0  0  0  0  0  0  0
    2.6700    1.5445    0.0000 O   0  0  0  0  0  0  0  0  0  0  0  0
    3.3845    1.9570    0.0000 C   0  0  1  0  0  0  0  0  0  0  0  0
    4.0989    1.5445    0.0000 O   0  0  0  0  0  0  0  0  0  0  0  0
    4.8134    1.9570    0.0000 C   0  0  1  0  0  0  0  0  0  0  0  0
    5.5279    1.5445    0.0000 C   0  0  0  0  0  0  0  0  0  0  0  0
    5.5279    0.7195    0.0000 O   0  0  0  0  0  0  0  0  0  0  0  0
    4.8134    2.7820    0.0000 C   0  0  1  0  0  0  0  0  0  0  0  0
    5.5279    3.1945    0.0000 O   0  0  0  0  0  0  0  0  0  0  0  0
    4.0989    3.1945    0.0000 C   0  0  1  0  0  0  0  0  0  0  0  0
    4.0989    4.0195    0.0000 O   0  0  0  0  0  0  0  0  0  0  0  0
    3.3845    2.7820    0.0000 C   0  0  1  0  0  0  0  0  0  0  0  0
    2.6700    3.1945    0.0000 O   0  0  0  0  0  0  0  0  0  0  0  0
    3.3845    0.3070    0.0000 C   0  0  0  0  0  0  0  0  0  0  0  0
    3.3845   -0.5180    0.0000 C   0  0  0  0  0  0  0  0  0  0  0  0
    2.6700   -0.9305    0.0000 C   0  0  0  0  0  0  0  0  0  0  0  0
    1.9555   -0.5180    0.0000 C   0  0  0  0  0  0  0  0  0  0  0  0
    0.5266   -2.1680    0.0000 C   0  0  0  0  0  0  0  0  0  0  0  0
   -0.1879   -1.7555    0.0000 C   0  0  0  0  0  0  0  0  0  0  0  0
   -0.9024   -2.1680    0.0000 C   0  0  0  0  0  0  0  0  0  0  0  0
   -0.9024   -2.9930    0.0000 C   0  0  0  0  0  0  0  0  0  0  0  0
   -0.1879   -3.4055    0.0000 C   0  0  0  0  0  0  0  0  0  0  0  0
   -0.1879   -4.2305    0.0000 O   0  0  0  0  0  0  0  0  0  0  0  0
   -0.9024   -4.6430    0.0000 C   0  0  1  0  0  0  0  0  0  0  0  0
   -0.9024   -5.4680    0.0000 O   0  0  0  0  0  0  0  0  0  0  0  0
   -1.6168   -5.8805    0.0000 C   0  0  1  0  0  0  0  0  0  0  0  0
   -1.6168   -6.7055    0.0000 C   0  0  0  0  0  0  0  0  0  0  0  0
   -0.9024   -7.1180    0.0000 O   0  0  0  0  0  0  0  0  0  0  0  0
   -2.3313   -5.4680    0.0000 C   0  0  1  0  0  0  0  0  0  0  0  0
   -3.0458   -5.8805    0.0000 O   0  0  0  0  0  0  0  0  0  0  0  0
   -2.3313   -4.6430    0.0000 C   0  0  1  0  0  0  0  0  0  0  0  0
   -3.0458   -4.2305    0.0000 O   0  0  0  0  0  0  0  0  0  0  0  0
   -1.6168   -4.2305    0.0000 C   0  0  1  0  0  0  0  0  0  0  0  0
   -1.6168   -3.4055    0.0000 O   0  0  0  0  0  0  0  0  0  0  0  0
    0.5266   -2.9930    0.0000 C   0  0  0  0  0  0  0  0  0  0  0  0
    1.2411   -3.4055    0.0000 C   0  0  0  0  0  0  0  0  0  0  0  0
    1.2411   -4.2305    0.0000 O   0  0  0  0  0  0  0  0  0  0  0  0
   -3.7602   -3.8180    0.0000 H   0  0  0  0  0  0  0  0  0  0  0  0
    4.8134   -0.5180    0.0000 H   0  0  0  0  0  0  0  0  0  0  0  0
   -1.6168   -2.5805    0.0000 H   0  0  0  0  0  0  0  0  0  0  0  0
   -2.2488   -7.2358    0.0000 H   0  0  0  0  0  0  0  0  0  0  0  0
   -1.7601   -7.5180    0.0000 H   0  0  0  0  0  0  0  0  0  0  0  0
   -1.6168    0.7195    0.0000 H   0  0  0  0  0  0  0  0  0  0  0  0
    4.0989    2.3695    0.0000 H   0  0  0  0  0  0  0  0  0  0  0  0
    2.6700    2.3695    0.0000 H   0  0  0  0  0  0  0  0  0  0  0  0
   -3.7602   -6.2930    0.0000 H   0  0  0  0  0  0  0  0  0  0  0  0
   -2.3313   -2.9930    0.0000 H   0  0  0  0  0  0  0  0  0  0  0  0
    2.6700   -0.1055    0.0000 H   0  0  0  0  0  0  0  0  0  0  0  0
    1.9555    3.6070    0.0000 H   0  0  0  0  0  0  0  0  0  0  0  0
    6.2423    3.6070    0.0000 H   0  0  0  0  0  0  0  0  0  0  0  0
    3.3845    3.6070    0.0000 H   0  0  0  0  0  0  0  0  0  0  0  0
   -3.0458   -5.0555    0.0000 H   0  0  0  0  0  0  0  0  0  0  0  0
   -0.0781   -7.1540    0.0000 H   0  0  0  0  0  0  0  0  0  0  0  0
   -0.9024   -1.3430    0.0000 H   0  0  0  0  0  0  0  0  0  0  0  0
    6.3031    1.2623    0.0000 H   0  0  0  0  0  0  0  0  0  0  0  0
    6.3031    1.8266    0.0000 H   0  0  0  0  0  0  0  0  0  0  0  0
    0.5266   -1.3430    0.0000 H   0  0  0  0  0  0  0  0  0  0  0  0
   -0.9024   -3.8180    0.0000 H   0  0  0  0  0  0  0  0  0  0  0  0
   -2.3313   -6.2930    0.0000 H   0  0  0  0  0  0  0  0  0  0  0  0
    1.9555    1.9570    0.0000 H   0  0  0  0  0  0  0  0  0  0  0  0
   -2.3313   -3.8180    0.0000 H   0  0  0  0  0  0  0  0  0  0  0  0
    4.0989    4.8445    0.0000 H   0  0  0  0  0  0  0  0  0  0  0  0
    4.0989    0.7195    0.0000 H   0  0  0  0  0  0  0  0  0  0  0  0
    1.9555   -4.6430    0.0000 H   0  0  0  0  0  0  0  0  0  0  0  0
    5.1469   -0.0123    0.0000 H   0  0  0  0  0  0  0  0  0  0  0  0
    4.8134    3.6070    0.0000 H   0  0  0  0  0  0  0  0  0  0  0  0
    5.5279    2.3695    0.0000 H   0  0  0  0  0  0  0  0  0  0  0  0
    0.5266   -4.6430    0.0000 H   0  0  0  0  0  0  0  0  0  0  0  0
   -2.3313   -2.1680    0.0000 H   0  0  0  0  0  0  0  0  0  0  0  0
    3.3845   -1.3430    0.0000 H   0  0  0  0  0  0  0  0  0  0  0  0
   -1.6168   -5.0555    0.0000 H   0  0  0  0  0  0  0  0  0  0  0  0
    0.5266    1.9570    0.0000 H   0  0  0  0  0  0  0  0  0  0  0  0
    1.9555   -1.3430    0.0000 H   0  0  0  0  0  0  0  0  0  0  0  0
    4.0989   -3.4055    0.0000 H   0  0  0  0  0  0  0  0  0  0  0  0
   -0.1879   -5.0555    0.0000 H   0  0  0  0  0  0  0  0  0  0  0  0
  1  2  2  0  0  0  0
  2  3  1  0  0  0  0
  2  4  1  0  0  0  0
  4  5  4  0  0  0  0
  4 10  4  0  0  0  0
  5  6  4  0  0  0  0
  6  7  1  0  0  0  0
  6  8  4  0  0  0  0
  8  9  4  0  0  0  0
  8 61  4  0  0  0  0
  9 10  4  0  0  0  0
  9 11  4  0  0  0  0
 11 12  1  0  0  0  0
 11 43  4  0  0  0  0
 12 13  4  0  0  0  0
 12 42  4  0  0  0  0
 13 14  4  0  0  0  0
 13 22  4  0  0  0  0
 14 15  4  0  0  0  0
 15 16  1  0  0  0  0
 15 19  4  0  0  0  0
 16 17  2  0  0  0  0
 16 18  1  0  0  0  0
 19 20  4  0  0  0  0
 20 21  1  0  0  0  0
 20 22  4  0  0  0  0
 22 23  4  0  0  0  0
 23 24  1  0  0  0  0
 23 25  4  0  0  0  0
 25 26  4  0  0  0  0
 25 42  4  0  0  0  0
 26 27  1  0  0  0  0
 26 39  4  0  0  0  0
 28 27  1  0  0  0  0
 28 29  1  0  0  0  0
 37 28  1  0  0  0  0
 30 29  1  0  0  0  0
 30 31  1  0  0  0  0
 33 30  1  0  0  0  0
 31 32  1  0  0  0  0
 33 34  1  0  0  0  0
 33 35  1  0  0  0  0
 35 36  1  0  0  0  0
 35 37  1  0  0  0  0
 37 38  1  0  0  0  0
 39 40  4  0  0  0  0
 40 41  4  0  0  0  0
 41 42  4  0  0  0  0
 43 44  4  0  0  0  0
 43 60  4  0  0  0  0
 44 45  4  0  0  0  0
 45 46  4  0  0  0  0
 46 47  4  0  0  0  0
 47 48  1  0  0  0  0
 47 60  4  0  0  0  0
 49 48  1  0  0  0  0
 49 50  1  0  0  0  0
 58 49  1  0  0  0  0
 51 50  1  0  0  0  0
 51 52  1  0  0  0  0
 54 51  1  0  0  0  0
 52 53  1  0  0  0  0
 54 55  1  0  0  0  0
 54 56  1  0  0  0  0
 56 57  1  0  0  0  0
 56 58  1  0  0  0  0
 58 59  1  0  0  0  0
 60 61  4  0  0  0  0
 61 62  1  0  0  0  0
 57 63  1  0  0  0  0
  3 64  1  0  0  0  0
 45 65  1  0  0  0  0
 52 66  1  0  0  0  0
 52 67  1  0  0  0  0
 19 68  1  0  0  0  0
 37 69  1  1  0  0  0
 28 70  1  1  0  0  0
 55 71  1  0  0  0  0
 59 72  1  0  0  0  0
 40 73  1  0  0  0  0
 38 74  1  0  0  0  0
 34 75  1  0  0  0  0
 35 76  1  1  0  0  0
 54 77  1  6  0  0  0
 53 78  1  0  0  0  0
 44 79  1  0  0  0  0
 31 80  1  0  0  0  0
 31 81  1  0  0  0  0
 14 82  1  0  0  0  0
 46 83  1  0  0  0  0
 51 84  1  6  0  0  0
 24 85  1  0  0  0  0
 56 86  1  6  0  0  0
 36 87  1  0  0  0  0
 39 88  1  0  0  0  0
  7 89  1  0  0  0  0
 32 90  1  0  0  0  0
 33 91  1  1  0  0  0
 30 92  1  1  0  0  0
 62 93  1  0  0  0  0
 18 94  1  0  0  0  0
 10 95  1  0  0  0  0
 58 96  1  6  0  0  0
 21 97  1  0  0  0  0
 41 98  1  0  0  0  0
  5 99  1  0  0  0  0
 49100  1  6  0  0  0
M  END
> <Molecule ChEMBL ID>
CHEMBL2368547

> <Class(50)>
1

> <Class(80)>
1

>  <salt>
false

>  <StandardizerResult>
Tautomerize (ID: Tautomerize)
Transform (ID: Transform NO2 (1))
Aromatize (ID: Aromatize)
Wedge Clean (ID: Wedge Clean)
Clean 2D (ID: Clean2D)

$$$$
CHEMBL1208422
  Mrv2010 08032110442D          

 37 40  0  0  0  0            999 V2000
   -1.0265   -0.4841    0.0000 O   0  0  0  0  0  0  0  0  0  0  0  0
   -0.3120   -0.8966    0.0000 C   0  0  0  0  0  0  0  0  0  0  0  0
   -0.7969   -1.5640    0.0000 O   0  0  0  0  0  0  0  0  0  0  0  0
    0.4025   -0.4841    0.0000 C   0  0  0  0  0  0  0  0  0  0  0  0
    0.4025    0.3409    0.0000 C   0  0  0  0  0  0  0  0  0  0  0  0
   -0.3120    0.7534    0.0000 Cl  0  0  0  0  0  0  0  0  0  0  0  0
    1.1169    0.7534    0.0000 C   0  0  0  0  0  0  0  0  0  0  0  0
    1.1169    1.5784    0.0000 Cl  0  0  0  0  0  0  0  0  0  0  0  0
    1.8314    0.3409    0.0000 C   0  0  0  0  0  0  0  0  0  0  0  0
    2.5459    0.7534    0.0000 Cl  0  0  0  0  0  0  0  0  0  0  0  0
    1.8314   -0.4841    0.0000 C   0  0  0  0  0  0  0  0  0  0  0  0
    2.5459   -0.8966    0.0000 Cl  0  0  0  0  0  0  0  0  0  0  0  0
    1.1169   -0.8966    0.0000 C   0  0  0  0  0  0  0  0  0  0  0  0
    1.1169   -1.7216    0.0000 C   0  0  0  0  0  0  0  0  0  0  0  0
    1.8314   -2.1341    0.0000 C   0  0  0  0  0  0  0  0  0  0  0  0
    2.5459   -1.7216    0.0000 C   0  0  0  0  0  0  0  0  0  0  0  0
    3.2603   -2.1341    0.0000 C   0  0  0  0  0  0  0  0  0  0  0  0
    3.9748   -1.7216    0.0000 I   0  0  0  0  0  0  0  0  0  0  0  0
    3.2603   -2.9591    0.0000 C   0  0  0  0  0  0  0  0  0  0  0  0
    3.9748   -3.3716    0.0000 O   0  0  0  0  0  0  0  0  0  0  0  0
    2.5459   -3.3716    0.0000 C   0  0  0  0  0  0  0  0  0  0  0  0
    2.5459   -4.1966    0.0000 I   0  0  0  0  0  0  0  0  0  0  0  0
    1.8314   -2.9591    0.0000 C   0  0  0  0  0  0  0  0  0  0  0  0
    1.1169   -3.3716    0.0000 O   0  0  0  0  0  0  0  0  0  0  0  0
    0.4025   -2.9591    0.0000 C   0  0  0  0  0  0  0  0  0  0  0  0
   -0.3120   -3.3716    0.0000 C   0  0  0  0  0  0  0  0  0  0  0  0
   -0.3120   -4.1966    0.0000 I   0  0  0  0  0  0  0  0  0  0  0  0
   -1.0265   -2.9591    0.0000 C   0  0  0  0  0  0  0  0  0  0  0  0
   -1.7410   -3.3716    0.0000 O   0  0  0  0  0  0  0  0  0  0  0  0
   -1.0265   -2.1341    0.0000 C   0  0  0  0  0  0  0  0  0  0  0  0
   -1.7410   -1.7216    0.0000 I   0  0  0  0  0  0  0  0  0  0  0  0
   -0.3120   -1.7216    0.0000 C   0  0  0  0  0  0  0  0  0  0  0  0
    0.4025   -2.1341    0.0000 C   0  0  0  0  0  0  0  0  0  0  0  0
   -2.4554   -2.9591    0.0000 H   0  0  0  0  0  0  0  0  0  0  0  0
    1.8314   -1.3091    0.0000 H   0  0  0  0  0  0  0  0  0  0  0  0
   -1.2309   -0.8624    0.0000 H   0  0  0  0  0  0  0  0  0  0  0  0
    0.4025   -1.3091    0.0000 H   0  0  0  0  0  0  0  0  0  0  0  0
  1  2  2  0  0  0  0
  2  3  1  0  0  0  0
  2  4  1  0  0  0  0
  4  5  4  0  0  0  0
  4 13  4  0  0  0  0
  5  6  1  0  0  0  0
  5  7  4  0  0  0  0
  7  8  1  0  0  0  0
  7  9  4  0  0  0  0
  9 10  1  0  0  0  0
  9 11  4  0  0  0  0
 11 12  1  0  0  0  0
 11 13  4  0  0  0  0
 13 14  1  0  0  0  0
 14 15  2  0  0  0  0
 14 33  1  0  0  0  0
 15 16  1  0  0  0  0
 15 23  1  0  0  0  0
 16 17  2  0  0  0  0
 17 18  1  0  0  0  0
 17 19  1  0  0  0  0
 19 20  2  0  0  0  0
 19 21  1  0  0  0  0
 21 22  1  0  0  0  0
 21 23  2  0  0  0  0
 23 24  1  0  0  0  0
 24 25  1  0  0  0  0
 25 26  4  0  0  0  0
 25 33  4  0  0  0  0
 26 27  1  0  0  0  0
 26 28  4  0  0  0  0
 28 29  1  0  0  0  0
 28 30  4  0  0  0  0
 30 31  1  0  0  0  0
 30 32  4  0  0  0  0
 32 33  4  0  0  0  0
 29 34  1  0  0  0  0
 16 35  1  0  0  0  0
  3 36  1  0  0  0  0
 32 37  1  0  0  0  0
M  END
> <Molecule ChEMBL ID>
CHEMBL1208422

> <Class(50)>
1

> <Class(80)>
1

>  <salt>
false

>  <StandardizerResult>
Tautomerize (ID: Tautomerize)
Neutralize (ID: Neutralize)
Aromatize (ID: Aromatize)
Wedge Clean (ID: Wedge Clean)
Clean 2D (ID: Clean2D)

$$$$
CHEMBL275938
  Mrv2010 08032110442D          

 45 47  0  0  0  0            999 V2000
   -2.8987    1.3414    0.0000 O   0  0  0  0  0  0  0  0  0  0  0  0
   -2.1842    0.9289    0.0000 C   0  0  0  0  0  0  0  0  0  0  0  0
   -1.4697    1.3414    0.0000 O   0  0  0  0  0  0  0  0  0  0  0  0
   -2.1842    0.1039    0.0000 C   0  0  0  0  0  0  0  0  0  0  0  0
   -1.4697   -0.3086    0.0000 C   0  0  0  0  0  0  0  0  0  0  0  0
   -1.4697   -1.1336    0.0000 C   0  0  0  0  0  0  0  0  0  0  0  0
   -0.7553   -1.5461    0.0000 C   0  0  0  0  0  0  0  0  0  0  0  0
   -0.7553   -2.3711    0.0000 C   0  0  0  0  0  0  0  0  0  0  0  0
   -0.0408   -2.7836    0.0000 C   0  0  0  0  0  0  0  0  0  0  0  0
   -0.0408   -3.6086    0.0000 C   0  0  0  0  0  0  0  0  0  0  0  0
   -0.7553   -4.0211    0.0000 C   0  0  0  0  0  0  0  0  0  0  0  0
   -0.7553   -4.8461    0.0000 O   0  0  0  0  0  0  0  0  0  0  0  0
   -1.4697   -3.6086    0.0000 C   0  0  0  0  0  0  0  0  0  0  0  0
   -2.1842   -4.0211    0.0000 C   0  0  0  0  0  0  0  0  0  0  0  0
   -2.8987   -3.6086    0.0000 O   0  0  0  0  0  0  0  0  0  0  0  0
   -2.1842   -4.8461    0.0000 O   0  0  0  0  0  0  0  0  0  0  0  0
   -1.4697   -2.7836    0.0000 C   0  0  0  0  0  0  0  0  0  0  0  0
   -0.0408   -1.1336    0.0000 C   0  0  0  0  0  0  0  0  0  0  0  0
   -0.0408   -0.3086    0.0000 C   0  0  0  0  0  0  0  0  0  0  0  0
    0.6737    0.1039    0.0000 C   0  0  0  0  0  0  0  0  0  0  0  0
    1.3881   -0.3086    0.0000 C   0  0  0  0  0  0  0  0  0  0  0  0
    2.1026    0.1039    0.0000 O   0  0  0  0  0  0  0  0  0  0  0  0
    1.3881   -1.1336    0.0000 C   0  0  0  0  0  0  0  0  0  0  0  0
    2.1026   -1.5461    0.0000 C   0  0  0  0  0  0  0  0  0  0  0  0
    2.1026   -2.3711    0.0000 O   0  0  0  0  0  0  0  0  0  0  0  0
    2.8171   -1.1336    0.0000 O   0  0  0  0  0  0  0  0  0  0  0  0
    0.6737   -1.5461    0.0000 C   0  0  0  0  0  0  0  0  0  0  0  0
   -2.1842   -1.5461    0.0000 C   0  0  0  0  0  0  0  0  0  0  0  0
   -2.8987   -1.1336    0.0000 C   0  0  0  0  0  0  0  0  0  0  0  0
   -2.8987   -0.3086    0.0000 C   0  0  0  0  0  0  0  0  0  0  0  0
   -3.6132    0.1039    0.0000 O   0  0  0  0  0  0  0  0  0  0  0  0
   -2.1842   -2.3711    0.0000 H   0  0  0  0  0  0  0  0  0  0  0  0
   -0.7553    0.1039    0.0000 H   0  0  0  0  0  0  0  0  0  0  0  0
    3.5315   -1.5461    0.0000 H   0  0  0  0  0  0  0  0  0  0  0  0
    0.6737   -4.0211    0.0000 H   0  0  0  0  0  0  0  0  0  0  0  0
   -0.7553   -0.7211    0.0000 H   0  0  0  0  0  0  0  0  0  0  0  0
   -2.8987   -1.9586    0.0000 H   0  0  0  0  0  0  0  0  0  0  0  0
   -3.7237   -1.1336    0.0000 H   0  0  0  0  0  0  0  0  0  0  0  0
    0.6737    0.9289    0.0000 H   0  0  0  0  0  0  0  0  0  0  0  0
    2.8171   -0.3086    0.0000 H   0  0  0  0  0  0  0  0  0  0  0  0
   -2.8987   -5.2586    0.0000 H   0  0  0  0  0  0  0  0  0  0  0  0
    0.6737   -2.3711    0.0000 H   0  0  0  0  0  0  0  0  0  0  0  0
   -1.4697   -5.2586    0.0000 H   0  0  0  0  0  0  0  0  0  0  0  0
   -0.7553    0.9289    0.0000 H   0  0  0  0  0  0  0  0  0  0  0  0
   -0.0408   -1.9586    0.0000 H   0  0  0  0  0  0  0  0  0  0  0  0
  1  2  2  0  0  0  0
  2  3  1  0  0  0  0
  2  4  1  0  0  0  0
  4  5  2  0  0  0  0
  4 30  1  0  0  0  0
  5  6  1  0  0  0  0
  6  7  2  0  0  0  0
  6 28  1  0  0  0  0
  7  8  1  0  0  0  0
  7 18  1  0  0  0  0
  8  9  4  0  0  0  0
  8 17  4  0  0  0  0
  9 10  4  0  0  0  0
 10 11  4  0  0  0  0
 11 12  1  0  0  0  0
 11 13  4  0  0  0  0
 13 14  1  0  0  0  0
 13 17  4  0  0  0  0
 14 15  2  0  0  0  0
 14 16  1  0  0  0  0
 18 19  4  0  0  0  0
 18 27  4  0  0  0  0
 19 20  4  0  0  0  0
 20 21  4  0  0  0  0
 21 22  1  0  0  0  0
 21 23  4  0  0  0  0
 23 24  1  0  0  0  0
 23 27  4  0  0  0  0
 24 25  2  0  0  0  0
 24 26  1  0  0  0  0
 28 29  2  0  0  0  0
 29 30  1  0  0  0  0
 30 31  2  0  0  0  0
 17 32  1  0  0  0  0
  5 33  1  0  0  0  0
 26 34  1  0  0  0  0
 10 35  1  0  0  0  0
 19 36  1  0  0  0  0
 28 37  1  0  0  0  0
 29 38  1  0  0  0  0
 20 39  1  0  0  0  0
 22 40  1  0  0  0  0
 16 41  1  0  0  0  0
  9 42  1  0  0  0  0
 12 43  1  0  0  0  0
  3 44  1  0  0  0  0
 27 45  1  0  0  0  0
M  END
> <Molecule ChEMBL ID>
CHEMBL275938

> <Class(50)>
1

> <Class(80)>
1

>  <salt>
false

>  <StandardizerResult>
Tautomerize (ID: Tautomerize)
Neutralize (ID: Neutralize)
Aromatize (ID: Aromatize)
Wedge Clean (ID: Wedge Clean)
Clean 2D (ID: Clean2D)

$$$$
CHEMBL1201073
  Mrv2010 08032110442D          

 16 15  0  0  1  0            999 V2000
   -0.7235    0.0135    0.0000 O   0  0  0  0  0  0  0  0  0  0  0  0
   -0.0090    0.4260    0.0000 C   0  0  0  0  0  0  0  0  0  0  0  0
   -0.0090    1.2510    0.0000 O   0  0  0  0  0  0  0  0  0  0  0  0
    0.7055    0.0135    0.0000 C   0  0  1  0  0  0  0  0  0  0  0  0
    0.7055   -0.8115    0.0000 S   0  0  0  0  0  0  0  0  0  0  0  0
    1.4199    0.4260    0.0000 C   0  0  1  0  0  0  0  0  0  0  0  0
    1.4199    1.2510    0.0000 S   0  0  0  0  0  0  0  0  0  0  0  0
    2.1344    0.0135    0.0000 C   0  0  0  0  0  0  0  0  0  0  0  0
    2.8489    0.4260    0.0000 O   0  0  0  0  0  0  0  0  0  0  0  0
    2.1344   -0.8115    0.0000 O   0  0  0  0  0  0  0  0  0  0  0  0
    1.4199   -1.2240    0.0000 H   0  0  0  0  0  0  0  0  0  0  0  0
    2.1344    1.6635    0.0000 H   0  0  0  0  0  0  0  0  0  0  0  0
   -0.0090   -0.3990    0.0000 H   0  0  0  0  0  0  0  0  0  0  0  0
    1.1180   -1.5260    0.0000 H   0  0  0  0  0  0  0  0  0  0  0  0
    0.7055    1.6635    0.0000 H   0  0  0  0  0  0  0  0  0  0  0  0
    0.7055    0.8385    0.0000 H   0  0  0  0  0  0  0  0  0  0  0  0
  1  2  2  0  0  0  0
  2  3  1  0  0  0  0
  4  2  1  0  0  0  0
  4  5  1  0  0  0  0
  4  6  1  0  0  0  0
  6  7  1  0  0  0  0
  6  8  1  0  0  0  0
  8  9  2  0  0  0  0
  8 10  1  0  0  0  0
 10 11  1  0  0  0  0
  7 12  1  0  0  0  0
  4 13  1  1  0  0  0
  5 14  1  0  0  0  0
  3 15  1  0  0  0  0
  6 16  1  6  0  0  0
M  END
> <Molecule ChEMBL ID>
CHEMBL1201073

> <Class(50)>
1

> <Class(80)>
1

>  <salt>
false

>  <StandardizerResult>
Tautomerize (ID: Tautomerize)
Transform (ID: Transform NO2 (1))
Wedge Clean (ID: Wedge Clean)
Clean 2D (ID: Clean2D)

$$$$
CHEMBL105712
  Mrv2010 08032110442D          

 17 17  0  0  0  0            999 V2000
    1.5495    1.2982    0.0000 O   0  0  0  0  0  0  0  0  0  0  0  0
    0.8351    0.8857    0.0000 C   0  0  0  0  0  0  0  0  0  0  0  0
    0.1206    1.2982    0.0000 C   0  0  0  0  0  0  0  0  0  0  0  0
    0.1206    2.1232    0.0000 Cl  0  0  0  0  0  0  0  0  0  0  0  0
    0.8351    0.0607    0.0000 C   0  0  0  0  0  0  0  0  0  0  0  0
    1.5495   -0.3518    0.0000 C   0  0  0  0  0  0  0  0  0  0  0  0
    1.5495   -1.1768    0.0000 C   0  0  0  0  0  0  0  0  0  0  0  0
    0.8351   -1.5893    0.0000 C   0  0  0  0  0  0  0  0  0  0  0  0
    0.1206   -1.1768    0.0000 C   0  0  0  0  0  0  0  0  0  0  0  0
    0.1206   -0.3518    0.0000 C   0  0  0  0  0  0  0  0  0  0  0  0
   -0.5939    0.0607    0.0000 H   0  0  0  0  0  0  0  0  0  0  0  0
    0.8351   -2.4143    0.0000 H   0  0  0  0  0  0  0  0  0  0  0  0
    2.2640   -1.5893    0.0000 H   0  0  0  0  0  0  0  0  0  0  0  0
    2.2640    0.0607    0.0000 H   0  0  0  0  0  0  0  0  0  0  0  0
   -0.5939   -1.5893    0.0000 H   0  0  0  0  0  0  0  0  0  0  0  0
   -0.7030    1.2502    0.0000 H   0  0  0  0  0  0  0  0  0  0  0  0
   -0.3327    0.6089    0.0000 H   0  0  0  0  0  0  0  0  0  0  0  0
  1  2  2  0  0  0  0
  2  3  1  0  0  0  0
  2  5  1  0  0  0  0
  3  4  1  0  0  0  0
  5  6  4  0  0  0  0
  5 10  4  0  0  0  0
  6  7  4  0  0  0  0
  7  8  4  0  0  0  0
  8  9  4  0  0  0  0
  9 10  4  0  0  0  0
 10 11  1  0  0  0  0
  8 12  1  0  0  0  0
  7 13  1  0  0  0  0
  6 14  1  0  0  0  0
  9 15  1  0  0  0  0
  3 16  1  0  0  0  0
  3 17  1  0  0  0  0
M  END
> <Molecule ChEMBL ID>
CHEMBL105712

> <Class(50)>
1

> <Class(80)>
1

>  <salt>
false

>  <StandardizerResult>
Tautomerize (ID: Tautomerize)
Neutralize (ID: Neutralize)
Aromatize (ID: Aromatize)
Wedge Clean (ID: Wedge Clean)
Clean 2D (ID: Clean2D)

$$$$
CHEMBL243652
  Mrv2010 08032110442D          

 29 31  0  0  1  0            999 V2000
    0.1574    3.4840    0.0000 O   0  0  0  0  0  0  0  0  0  0  0  0
   -0.2551    2.7695    0.0000 C   0  0  0  0  0  0  0  0  0  0  0  0
    0.1574    2.0550    0.0000 C   0  0  0  0  0  0  0  0  0  0  0  0
    0.9824    2.0550    0.0000 C   0  0  0  0  0  0  0  0  0  0  0  0
    1.4673    2.7225    0.0000 S   0  0  0  0  0  0  0  0  0  0  0  0
    2.2519    2.4675    0.0000 C   0  0  0  0  0  0  0  0  0  0  0  0
    3.0365    2.7225    0.0000 N   0  0  0  0  0  0  0  0  0  0  0  0
    3.5215    2.0550    0.0000 C   0  0  0  0  0  0  0  0  0  0  0  0
    3.0365    1.3876    0.0000 N   0  0  0  0  0  0  0  0  0  0  0  0
    2.2519    1.6425    0.0000 N   0  0  0  0  0  0  0  0  0  0  0  0
    1.4673    1.3876    0.0000 C   0  0  0  0  0  0  0  0  0  0  0  0
    1.2124    0.6030    0.0000 O   0  0  0  0  0  0  0  0  0  0  0  0
   -1.0801    2.7695    0.0000 N   0  0  0  0  0  0  0  0  0  0  0  0
   -1.4926    3.4840    0.0000 C   0  0  0  0  0  0  0  0  0  0  0  0
   -2.3176    3.4840    0.0000 C   0  0  0  0  0  0  0  0  0  0  0  0
   -2.7301    4.1984    0.0000 C   0  0  0  0  0  0  0  0  0  0  0  0
   -2.3176    4.9129    0.0000 C   0  0  0  0  0  0  0  0  0  0  0  0
   -2.7301    5.6274    0.0000 Br  0  0  0  0  0  0  0  0  0  0  0  0
   -1.4926    4.9129    0.0000 C   0  0  0  0  0  0  0  0  0  0  0  0
   -1.0801    4.1984    0.0000 C   0  0  0  0  0  0  0  0  0  0  0  0
   -1.4926    2.0550    0.0000 H   0  0  0  0  0  0  0  0  0  0  0  0
   -3.5551    4.1984    0.0000 H   0  0  0  0  0  0  0  0  0  0  0  0
   -1.0801    5.6274    0.0000 H   0  0  0  0  0  0  0  0  0  0  0  0
   -2.7301    2.7695    0.0000 H   0  0  0  0  0  0  0  0  0  0  0  0
   -0.2551    4.1984    0.0000 H   0  0  0  0  0  0  0  0  0  0  0  0
    4.3465    2.0550    0.0000 H   0  0  0  0  0  0  0  0  0  0  0  0
   -0.5319    1.6017    0.0000 H   0  0  0  0  0  0  0  0  0  0  0  0
    0.1094    1.2314    0.0000 H   0  0  0  0  0  0  0  0  0  0  0  0
    0.6078    1.3199    0.0000 H   0  0  0  0  0  0  0  0  0  0  0  0
  1  2  2  0  0  0  0
  2  3  1  0  0  0  0
  2 13  1  0  0  0  0
  3  4  1  0  0  0  0
  4  5  1  0  0  0  0
  4 11  1  0  0  0  0
  5  6  1  0  0  0  0
  6  7  4  0  0  0  0
  6 10  4  0  0  0  0
  7  8  4  0  0  0  0
  8  9  4  0  0  0  0
  9 10  4  0  0  0  0
 10 11  1  0  0  0  0
 11 12  2  0  0  0  0
 13 14  1  0  0  0  0
 14 15  4  0  0  0  0
 14 20  4  0  0  0  0
 15 16  4  0  0  0  0
 16 17  4  0  0  0  0
 17 18  1  0  0  0  0
 17 19  4  0  0  0  0
 19 20  4  0  0  0  0
 13 21  1  0  0  0  0
 16 22  1  0  0  0  0
 19 23  1  0  0  0  0
 15 24  1  0  0  0  0
 20 25  1  0  0  0  0
  8 26  1  0  0  0  0
  3 27  1  0  0  0  0
  3 28  1  0  0  0  0
  4 29  1  0  0  0  0
M  END
> <Molecule ChEMBL ID>
CHEMBL243652

> <Class(50)>
1

> <Class(80)>
1

>  <salt>
false

>  <StandardizerResult>
Tautomerize (ID: Tautomerize)
Transform (ID: Transform NO2 (1))
Aromatize (ID: Aromatize)
Wedge Clean (ID: Wedge Clean)
Clean 2D (ID: Clean2D)

$$$$
CHEMBL329522
  Mrv2010 08032110442D          

 30 31  0  0  0  0            999 V2000
   -1.4491   -0.3839    0.0000 O   0  0  0  0  0  0  0  0  0  0  0  0
   -0.7346   -0.7964    0.0000 C   0  0  0  0  0  0  0  0  0  0  0  0
   -0.7346   -1.6214    0.0000 C   0  0  0  0  0  0  0  0  0  0  0  0
   -0.0201   -2.0339    0.0000 C   0  0  0  0  0  0  0  0  0  0  0  0
   -0.0201   -2.8589    0.0000 C   0  0  0  0  0  0  0  0  0  0  0  0
    0.6943   -3.2714    0.0000 O   0  0  0  0  0  0  0  0  0  0  0  0
   -0.7346   -3.2714    0.0000 C   0  0  0  0  0  0  0  0  0  0  0  0
   -0.7346   -4.0964    0.0000 O   0  0  0  0  0  0  0  0  0  0  0  0
   -1.4491   -2.8589    0.0000 C   0  0  0  0  0  0  0  0  0  0  0  0
   -2.1635   -3.2714    0.0000 O   0  0  0  0  0  0  0  0  0  0  0  0
   -1.4491   -2.0339    0.0000 C   0  0  0  0  0  0  0  0  0  0  0  0
   -0.0201   -0.3839    0.0000 C   0  0  0  0  0  0  0  0  0  0  0  0
   -0.0201    0.4411    0.0000 C   0  0  0  0  0  0  0  0  0  0  0  0
    0.6943    0.8536    0.0000 C   0  0  0  0  0  0  0  0  0  0  0  0
    1.4088    0.4411    0.0000 C   0  0  0  0  0  0  0  0  0  0  0  0
    2.1233    0.8536    0.0000 O   0  0  0  0  0  0  0  0  0  0  0  0
    1.4088   -0.3839    0.0000 C   0  0  0  0  0  0  0  0  0  0  0  0
    2.1233   -0.7964    0.0000 O   0  0  0  0  0  0  0  0  0  0  0  0
    0.6943   -0.7964    0.0000 C   0  0  0  0  0  0  0  0  0  0  0  0
    0.6943   -1.6214    0.0000 O   0  0  0  0  0  0  0  0  0  0  0  0
    0.6943   -4.0964    0.0000 H   0  0  0  0  0  0  0  0  0  0  0  0
   -0.7346    0.8536    0.0000 H   0  0  0  0  0  0  0  0  0  0  0  0
    2.8378    0.4411    0.0000 H   0  0  0  0  0  0  0  0  0  0  0  0
   -1.4491   -4.5089    0.0000 H   0  0  0  0  0  0  0  0  0  0  0  0
   -2.8780   -2.8589    0.0000 H   0  0  0  0  0  0  0  0  0  0  0  0
   -0.0201   -1.2089    0.0000 H   0  0  0  0  0  0  0  0  0  0  0  0
    2.1233   -1.6214    0.0000 H   0  0  0  0  0  0  0  0  0  0  0  0
   -2.1635   -1.6214    0.0000 H   0  0  0  0  0  0  0  0  0  0  0  0
    1.4088   -2.0339    0.0000 H   0  0  0  0  0  0  0  0  0  0  0  0
    0.6943    1.6786    0.0000 H   0  0  0  0  0  0  0  0  0  0  0  0
  1  2  2  0  0  0  0
  2  3  1  0  0  0  0
  2 12  1  0  0  0  0
  3  4  4  0  0  0  0
  3 11  4  0  0  0  0
  4  5  4  0  0  0  0
  5  6  1  0  0  0  0
  5  7  4  0  0  0  0
  7  8  1  0  0  0  0
  7  9  4  0  0  0  0
  9 10  1  0  0  0  0
  9 11  4  0  0  0  0
 12 13  4  0  0  0  0
 12 19  4  0  0  0  0
 13 14  4  0  0  0  0
 14 15  4  0  0  0  0
 15 16  1  0  0  0  0
 15 17  4  0  0  0  0
 17 18  1  0  0  0  0
 17 19  4  0  0  0  0
 19 20  1  0  0  0  0
  6 21  1  0  0  0  0
 13 22  1  0  0  0  0
 16 23  1  0  0  0  0
  8 24  1  0  0  0  0
 10 25  1  0  0  0  0
  4 26  1  0  0  0  0
 18 27  1  0  0  0  0
 11 28  1  0  0  0  0
 20 29  1  0  0  0  0
 14 30  1  0  0  0  0
M  END
> <Molecule ChEMBL ID>
CHEMBL329522

> <Class(50)>
1

> <Class(80)>
1

>  <salt>
false

>  <StandardizerResult>
Tautomerize (ID: Tautomerize)
Neutralize (ID: Neutralize)
Aromatize (ID: Aromatize)
Wedge Clean (ID: Wedge Clean)
Clean 2D (ID: Clean2D)

$$$$
CHEMBL3105836
  Mrv2010 08032110442D          

 32 34  0  0  0  0            999 V2000
   -1.2384   -4.9669    0.0000 O   0  0  0  0  0  0  0  0  0  0  0  0
   -1.2384   -4.1419    0.0000 C   0  0  0  0  0  0  0  0  0  0  0  0
   -0.5239   -3.7294    0.0000 C   0  0  0  0  0  0  0  0  0  0  0  0
   -0.5239   -2.9044    0.0000 C   0  0  0  0  0  0  0  0  0  0  0  0
    0.1906   -2.4919    0.0000 C   0  0  0  0  0  0  0  0  0  0  0  0
    0.1906   -1.6669    0.0000 C   0  0  0  0  0  0  0  0  0  0  0  0
    0.9051   -1.2544    0.0000 C   0  0  0  0  0  0  0  0  0  0  0  0
    1.6195   -1.6669    0.0000 C   0  0  0  0  0  0  0  0  0  0  0  0
    2.3340   -1.2544    0.0000 C   0  0  0  0  0  0  0  0  0  0  0  0
    3.0485   -1.6669    0.0000 C   0  0  0  0  0  0  0  0  0  0  0  0
    3.0485   -2.4919    0.0000 C   0  0  0  0  0  0  0  0  0  0  0  0
    2.3340   -2.9044    0.0000 C   0  0  0  0  0  0  0  0  0  0  0  0
    1.6195   -2.4919    0.0000 C   0  0  0  0  0  0  0  0  0  0  0  0
    0.9051   -2.9044    0.0000 N   0  0  0  0  0  0  0  0  0  0  0  0
   -1.9528   -3.7294    0.0000 C   0  0  0  0  0  0  0  0  0  0  0  0
   -2.6673   -4.1419    0.0000 C   0  0  0  0  0  0  0  0  0  0  0  0
   -3.3818   -3.7294    0.0000 C   0  0  0  0  0  0  0  0  0  0  0  0
   -3.3818   -2.9044    0.0000 N   0  0  0  0  0  0  0  0  0  0  0  0
   -2.6673   -2.4919    0.0000 C   0  0  0  0  0  0  0  0  0  0  0  0
   -1.9528   -2.9044    0.0000 C   0  0  0  0  0  0  0  0  0  0  0  0
    2.3340   -3.7294    0.0000 H   0  0  0  0  0  0  0  0  0  0  0  0
   -4.0962   -4.1419    0.0000 H   0  0  0  0  0  0  0  0  0  0  0  0
   -2.6673   -1.6669    0.0000 H   0  0  0  0  0  0  0  0  0  0  0  0
    2.3340   -0.4294    0.0000 H   0  0  0  0  0  0  0  0  0  0  0  0
    0.9051   -0.4294    0.0000 H   0  0  0  0  0  0  0  0  0  0  0  0
    3.7629   -1.2544    0.0000 H   0  0  0  0  0  0  0  0  0  0  0  0
   -2.6673   -4.9669    0.0000 H   0  0  0  0  0  0  0  0  0  0  0  0
   -1.2384   -3.3169    0.0000 H   0  0  0  0  0  0  0  0  0  0  0  0
    0.1906   -4.1419    0.0000 H   0  0  0  0  0  0  0  0  0  0  0  0
   -0.5239   -1.2544    0.0000 H   0  0  0  0  0  0  0  0  0  0  0  0
   -1.2384   -2.4919    0.0000 H   0  0  0  0  0  0  0  0  0  0  0  0
    3.7629   -2.9044    0.0000 H   0  0  0  0  0  0  0  0  0  0  0  0
  1  2  2  0  0  0  0
  2  3  1  0  0  0  0
  2 15  1  0  0  0  0
  3  4  2  0  0  0  0
  4  5  1  0  0  0  0
  5  6  4  0  0  0  0
  5 14  4  0  0  0  0
  6  7  4  0  0  0  0
  7  8  4  0  0  0  0
  8  9  4  0  0  0  0
  8 13  4  0  0  0  0
  9 10  4  0  0  0  0
 10 11  4  0  0  0  0
 11 12  4  0  0  0  0
 12 13  4  0  0  0  0
 13 14  4  0  0  0  0
 15 16  4  0  0  0  0
 15 20  4  0  0  0  0
 16 17  4  0  0  0  0
 17 18  4  0  0  0  0
 18 19  4  0  0  0  0
 19 20  4  0  0  0  0
 12 21  1  0  0  0  0
 17 22  1  0  0  0  0
 19 23  1  0  0  0  0
  9 24  1  0  0  0  0
  7 25  1  0  0  0  0
 10 26  1  0  0  0  0
 16 27  1  0  0  0  0
 20 28  1  0  0  0  0
  3 29  1  0  0  0  0
  6 30  1  0  0  0  0
  4 31  1  0  0  0  0
 11 32  1  0  0  0  0
M  END
> <Molecule ChEMBL ID>
CHEMBL3105836

> <Class(50)>
1

> <Class(80)>
1

>  <salt>
false

>  <StandardizerResult>
Tautomerize (ID: Tautomerize)
Neutralize (ID: Neutralize)
Aromatize (ID: Aromatize)
Wedge Clean (ID: Wedge Clean)
Clean 2D (ID: Clean2D)

$$$$
CHEMBL3747259
  Mrv2010 08032110442D          

 82 86  0  0  1  0            999 V2000
    1.1268   -1.5873    0.0000 O   0  0  0  0  0  0  0  0  0  0  0  0
    1.8413   -1.9998    0.0000 C   0  0  0  0  0  0  0  0  0  0  0  0
    1.8413   -2.8248    0.0000 C   0  0  0  0  0  0  0  0  0  0  0  0
    1.1268   -3.2373    0.0000 C   0  0  0  0  0  0  0  0  0  0  0  0
    1.1268   -4.0623    0.0000 C   0  0  0  0  0  0  0  0  0  0  0  0
    1.8413   -4.4748    0.0000 C   0  0  0  0  0  0  0  0  0  0  0  0
    1.8413   -5.2998    0.0000 C   0  0  0  0  0  0  0  0  0  0  0  0
    1.1268   -5.7123    0.0000 C   0  0  0  0  0  0  0  0  0  0  0  0
    1.1268   -6.5373    0.0000 O   0  0  0  0  0  0  0  0  0  0  0  0
    0.4123   -5.2998    0.0000 C   0  0  0  0  0  0  0  0  0  0  0  0
    0.4123   -4.4748    0.0000 C   0  0  0  0  0  0  0  0  0  0  0  0
   -0.3723   -4.2199    0.0000 C   0  0  0  0  0  0  0  0  0  0  0  0
   -0.6273   -3.4353    0.0000 C   0  0  0  0  0  0  0  0  0  0  0  0
   -0.0752   -2.8222    0.0000 O   0  0  0  0  0  0  0  0  0  0  0  0
   -1.4342   -3.2638    0.0000 O   0  0  0  0  0  0  0  0  0  0  0  0
   -1.6892   -2.4791    0.0000 C   0  0  0  0  0  0  0  0  0  0  0  0
   -2.4961   -2.3076    0.0000 C   0  0  0  0  0  0  0  0  0  0  0  0
   -2.7511   -1.5230    0.0000 C   0  0  0  0  0  0  0  0  0  0  0  0
   -3.5580   -1.3515    0.0000 C   0  0  0  0  0  0  0  0  0  0  0  0
   -3.8130   -0.5668    0.0000 C   0  0  0  0  0  0  0  0  0  0  0  0
   -3.2610    0.0463    0.0000 C   0  0  0  0  0  0  0  0  0  0  0  0
   -3.5159    0.8309    0.0000 O   0  0  0  0  0  0  0  0  0  0  0  0
   -2.4540   -0.1253    0.0000 C   0  0  0  0  0  0  0  0  0  0  0  0
   -1.9019    0.4878    0.0000 O   0  0  0  0  0  0  0  0  0  0  0  0
   -2.1990   -0.9099    0.0000 C   0  0  0  0  0  0  0  0  0  0  0  0
   -1.1371   -1.8660    0.0000 C   0  0  0  0  0  0  0  0  0  0  0  0
   -1.3921   -1.0814    0.0000 O   0  0  0  0  0  0  0  0  0  0  0  0
   -0.3302   -2.0376    0.0000 O   0  0  0  0  0  0  0  0  0  0  0  0
   -0.8572   -4.8873    0.0000 C   0  0  0  0  0  0  0  0  0  0  0  0
   -1.6822   -4.8873    0.0000 C   0  0  0  0  0  0  0  0  0  0  0  0
   -2.0947   -5.6018    0.0000 C   0  0  0  0  0  0  0  0  0  0  0  0
   -2.9197   -5.6018    0.0000 C   0  0  0  0  0  0  0  0  0  0  0  0
   -3.3322   -4.8873    0.0000 C   0  0  0  0  0  0  0  0  0  0  0  0
   -4.1572   -4.8873    0.0000 O   0  0  0  0  0  0  0  0  0  0  0  0
   -2.9197   -4.1729    0.0000 C   0  0  0  0  0  0  0  0  0  0  0  0
   -3.3322   -3.4584    0.0000 O   0  0  0  0  0  0  0  0  0  0  0  0
   -2.0947   -4.1729    0.0000 C   0  0  0  0  0  0  0  0  0  0  0  0
   -0.3723   -5.5548    0.0000 O   0  0  0  0  0  0  0  0  0  0  0  0
    2.5557   -1.5873    0.0000 O   0  0  0  0  0  0  0  0  0  0  0  0
    3.2702   -1.9998    0.0000 C   0  0  1  0  0  0  0  0  0  0  0  0
    3.9847   -1.5873    0.0000 C   0  0  0  0  0  0  0  0  0  0  0  0
    4.6991   -1.9998    0.0000 C   0  0  0  0  0  0  0  0  0  0  0  0
    5.4136   -1.5873    0.0000 C   0  0  0  0  0  0  0  0  0  0  0  0
    6.1281   -1.9998    0.0000 C   0  0  0  0  0  0  0  0  0  0  0  0
    6.1281   -2.8248    0.0000 C   0  0  0  0  0  0  0  0  0  0  0  0
    6.8425   -3.2373    0.0000 O   0  0  0  0  0  0  0  0  0  0  0  0
    5.4136   -3.2373    0.0000 C   0  0  0  0  0  0  0  0  0  0  0  0
    5.4136   -4.0623    0.0000 O   0  0  0  0  0  0  0  0  0  0  0  0
    4.6991   -2.8248    0.0000 C   0  0  0  0  0  0  0  0  0  0  0  0
    3.2702   -2.8248    0.0000 C   0  0  0  0  0  0  0  0  0  0  0  0
    3.9847   -3.2373    0.0000 O   0  0  0  0  0  0  0  0  0  0  0  0
    2.5557   -3.2373    0.0000 O   0  0  0  0  0  0  0  0  0  0  0  0
   -1.9441   -1.6945    0.0000 H   0  0  0  0  0  0  0  0  0  0  0  0
    6.8425   -4.0623    0.0000 H   0  0  0  0  0  0  0  0  0  0  0  0
   -1.1872   -4.0908    0.0000 H   0  0  0  0  0  0  0  0  0  0  0  0
    2.5557   -5.7123    0.0000 H   0  0  0  0  0  0  0  0  0  0  0  0
   -4.3504   -1.5813    0.0000 H   0  0  0  0  0  0  0  0  0  0  0  0
    1.8413   -3.6498    0.0000 H   0  0  0  0  0  0  0  0  0  0  0  0
    4.6991   -4.4748    0.0000 H   0  0  0  0  0  0  0  0  0  0  0  0
    6.8425   -1.5873    0.0000 H   0  0  0  0  0  0  0  0  0  0  0  0
   -3.3206   -2.2788    0.0000 H   0  0  0  0  0  0  0  0  0  0  0  0
   -3.1462   -2.8155    0.0000 H   0  0  0  0  0  0  0  0  0  0  0  0
   -1.0950    0.3163    0.0000 H   0  0  0  0  0  0  0  0  0  0  0  0
   -4.6200   -0.3953    0.0000 H   0  0  0  0  0  0  0  0  0  0  0  0
    3.2702   -1.1748    0.0000 H   0  0  0  0  0  0  0  0  0  0  0  0
    3.9847   -2.4123    0.0000 H   0  0  0  0  0  0  0  0  0  0  0  0
    2.5557   -2.4123    0.0000 H   0  0  0  0  0  0  0  0  0  0  0  0
   -2.2412   -3.0922    0.0000 H   0  0  0  0  0  0  0  0  0  0  0  0
    0.4123   -2.8248    0.0000 H   0  0  0  0  0  0  0  0  0  0  0  0
   -2.9639    1.4440    0.0000 H   0  0  0  0  0  0  0  0  0  0  0  0
    0.4123   -6.9498    0.0000 H   0  0  0  0  0  0  0  0  0  0  0  0
    5.8486   -0.8863    0.0000 H   0  0  0  0  0  0  0  0  0  0  0  0
   -1.2318   -5.6224    0.0000 H   0  0  0  0  0  0  0  0  0  0  0  0
    4.6167   -1.0570    0.0000 H   0  0  0  0  0  0  0  0  0  0  0  0
    4.1279   -0.7749    0.0000 H   0  0  0  0  0  0  0  0  0  0  0  0
   -3.3322   -6.3163    0.0000 H   0  0  0  0  0  0  0  0  0  0  0  0
   -4.1512   -3.5580    0.0000 H   0  0  0  0  0  0  0  0  0  0  0  0
   -2.1046   -6.4268    0.0000 H   0  0  0  0  0  0  0  0  0  0  0  0
   -4.5697   -4.1729    0.0000 H   0  0  0  0  0  0  0  0  0  0  0  0
    0.2219   -1.4245    0.0000 H   0  0  0  0  0  0  0  0  0  0  0  0
    2.5557   -4.0623    0.0000 H   0  0  0  0  0  0  0  0  0  0  0  0
   -2.1319   -3.3487    0.0000 H   0  0  0  0  0  0  0  0  0  0  0  0
  1  2  2  0  0  0  0
  2  3  1  0  0  0  0
  2 39  1  0  0  0  0
  3  4  2  0  0  0  0
  4  5  1  0  0  0  0
  5  6  4  0  0  0  0
  5 11  4  0  0  0  0
  6  7  4  0  0  0  0
  7  8  4  0  0  0  0
  8  9  1  0  0  0  0
  8 10  4  0  0  0  0
 10 11  4  0  0  0  0
 10 38  1  0  0  0  0
 11 12  1  0  0  0  0
 12 13  1  0  0  0  0
 12 29  1  0  0  0  0
 13 14  2  0  0  0  0
 13 15  1  0  0  0  0
 15 16  1  0  0  0  0
 16 17  1  0  0  0  0
 16 26  1  0  0  0  0
 17 18  1  0  0  0  0
 18 19  4  0  0  0  0
 18 25  4  0  0  0  0
 19 20  4  0  0  0  0
 20 21  4  0  0  0  0
 21 22  1  0  0  0  0
 21 23  4  0  0  0  0
 23 24  1  0  0  0  0
 23 25  4  0  0  0  0
 26 27  2  0  0  0  0
 26 28  1  0  0  0  0
 29 30  1  0  0  0  0
 29 38  1  0  0  0  0
 30 31  4  0  0  0  0
 30 37  4  0  0  0  0
 31 32  4  0  0  0  0
 32 33  4  0  0  0  0
 33 34  1  0  0  0  0
 33 35  4  0  0  0  0
 35 36  1  0  0  0  0
 35 37  4  0  0  0  0
 40 39  1  0  0  0  0
 40 41  1  0  0  0  0
 40 50  1  0  0  0  0
 41 42  1  0  0  0  0
 42 43  4  0  0  0  0
 42 49  4  0  0  0  0
 43 44  4  0  0  0  0
 44 45  4  0  0  0  0
 45 46  1  0  0  0  0
 45 47  4  0  0  0  0
 47 48  1  0  0  0  0
 47 49  4  0  0  0  0
 50 51  2  0  0  0  0
 50 52  1  0  0  0  0
 25 53  1  0  0  0  0
 46 54  1  0  0  0  0
 12 55  1  0  0  0  0
  7 56  1  0  0  0  0
 19 57  1  0  0  0  0
 52 58  1  0  0  0  0
 48 59  1  0  0  0  0
 44 60  1  0  0  0  0
 17 61  1  0  0  0  0
 17 62  1  0  0  0  0
 24 63  1  0  0  0  0
 20 64  1  0  0  0  0
 40 65  1  6  0  0  0
 49 66  1  0  0  0  0
  3 67  1  0  0  0  0
 16 68  1  0  0  0  0
  4 69  1  0  0  0  0
 22 70  1  0  0  0  0
  9 71  1  0  0  0  0
 43 72  1  0  0  0  0
 29 73  1  0  0  0  0
 41 74  1  0  0  0  0
 41 75  1  0  0  0  0
 32 76  1  0  0  0  0
 36 77  1  0  0  0  0
 31 78  1  0  0  0  0
 34 79  1  0  0  0  0
 28 80  1  0  0  0  0
  6 81  1  0  0  0  0
 37 82  1  0  0  0  0
M  END
> <Molecule ChEMBL ID>
CHEMBL3747259

> <Class(50)>
1

> <Class(80)>
1

>  <salt>
false

>  <StandardizerResult>
Tautomerize (ID: Tautomerize)
Transform (ID: Transform NO2 (1))
Aromatize (ID: Aromatize)
Wedge Clean (ID: Wedge Clean)
Clean 2D (ID: Clean2D)

$$$$
CHEMBL324842
  Mrv2010 08032110442D          

 42 43  0  0  1  0            999 V2000
   -1.7046   -4.0701    0.0000 O   0  0  0  0  0  0  0  0  0  0  0  0
   -0.9901   -3.6576    0.0000 C   0  0  0  0  0  0  0  0  0  0  0  0
   -0.2756   -4.0701    0.0000 C   0  0  0  0  0  0  0  0  0  0  0  0
   -0.2756   -4.8951    0.0000 C   0  0  0  0  0  0  0  0  0  0  0  0
    0.4388   -5.3076    0.0000 C   0  0  0  0  0  0  0  0  0  0  0  0
    1.1533   -4.8951    0.0000 C   0  0  0  0  0  0  0  0  0  0  0  0
    1.8678   -5.3076    0.0000 C   0  0  0  0  0  0  0  0  0  0  0  0
    1.8678   -6.1326    0.0000 C   0  0  0  0  0  0  0  0  0  0  0  0
    2.5822   -6.5451    0.0000 O   0  0  0  0  0  0  0  0  0  0  0  0
    1.1533   -6.5451    0.0000 C   0  0  0  0  0  0  0  0  0  0  0  0
    1.1533   -7.3701    0.0000 O   0  0  0  0  0  0  0  0  0  0  0  0
    0.4388   -6.1326    0.0000 C   0  0  0  0  0  0  0  0  0  0  0  0
   -0.9901   -2.8326    0.0000 O   0  0  0  0  0  0  0  0  0  0  0  0
   -0.2756   -2.4201    0.0000 C   0  0  1  0  0  0  0  0  0  0  0  0
   -0.2756   -1.5951    0.0000 C   0  0  0  0  0  0  0  0  0  0  0  0
    0.4388   -1.1826    0.0000 C   0  0  0  0  0  0  0  0  0  0  0  0
    0.4388   -0.3576    0.0000 C   0  0  0  0  0  0  0  0  0  0  0  0
    1.1533    0.0549    0.0000 C   0  0  0  0  0  0  0  0  0  0  0  0
    1.8678   -0.3576    0.0000 C   0  0  0  0  0  0  0  0  0  0  0  0
    2.5822    0.0549    0.0000 O   0  0  0  0  0  0  0  0  0  0  0  0
    1.8678   -1.1826    0.0000 C   0  0  0  0  0  0  0  0  0  0  0  0
    2.5822   -1.5951    0.0000 O   0  0  0  0  0  0  0  0  0  0  0  0
    1.1533   -1.5951    0.0000 C   0  0  0  0  0  0  0  0  0  0  0  0
    0.4388   -2.8326    0.0000 C   0  0  0  0  0  0  0  0  0  0  0  0
    1.1533   -2.4201    0.0000 O   0  0  0  0  0  0  0  0  0  0  0  0
    0.4388   -3.6576    0.0000 O   0  0  0  0  0  0  0  0  0  0  0  0
   -0.2756   -6.5451    0.0000 H   0  0  0  0  0  0  0  0  0  0  0  0
    0.4388   -7.7826    0.0000 H   0  0  0  0  0  0  0  0  0  0  0  0
    3.2967   -0.3576    0.0000 H   0  0  0  0  0  0  0  0  0  0  0  0
    1.1533   -4.0701    0.0000 H   0  0  0  0  0  0  0  0  0  0  0  0
   -0.4189   -0.7826    0.0000 H   0  0  0  0  0  0  0  0  0  0  0  0
   -0.9076   -1.0648    0.0000 H   0  0  0  0  0  0  0  0  0  0  0  0
   -0.2756   -3.2451    0.0000 H   0  0  0  0  0  0  0  0  0  0  0  0
   -0.9901   -2.0076    0.0000 H   0  0  0  0  0  0  0  0  0  0  0  0
    0.0492    0.3696    0.0000 H   0  0  0  0  0  0  0  0  0  0  0  0
    2.5822   -4.8951    0.0000 H   0  0  0  0  0  0  0  0  0  0  0  0
   -0.9901   -5.3076    0.0000 H   0  0  0  0  0  0  0  0  0  0  0  0
    1.1533    0.8799    0.0000 H   0  0  0  0  0  0  0  0  0  0  0  0
    2.5822   -2.4201    0.0000 H   0  0  0  0  0  0  0  0  0  0  0  0
    0.4388   -2.0076    0.0000 H   0  0  0  0  0  0  0  0  0  0  0  0
    0.4388   -4.4826    0.0000 H   0  0  0  0  0  0  0  0  0  0  0  0
    2.5822   -7.3701    0.0000 H   0  0  0  0  0  0  0  0  0  0  0  0
  1  2  2  0  0  0  0
  2  3  1  0  0  0  0
  2 13  1  0  0  0  0
  3  4  2  0  0  0  0
  4  5  1  0  0  0  0
  5  6  4  0  0  0  0
  5 12  4  0  0  0  0
  6  7  4  0  0  0  0
  7  8  4  0  0  0  0
  8  9  1  0  0  0  0
  8 10  4  0  0  0  0
 10 11  1  0  0  0  0
 10 12  4  0  0  0  0
 14 13  1  0  0  0  0
 14 15  1  0  0  0  0
 14 24  1  0  0  0  0
 15 16  1  0  0  0  0
 16 17  4  0  0  0  0
 16 23  4  0  0  0  0
 17 18  4  0  0  0  0
 18 19  4  0  0  0  0
 19 20  1  0  0  0  0
 19 21  4  0  0  0  0
 21 22  1  0  0  0  0
 21 23  4  0  0  0  0
 24 25  2  0  0  0  0
 24 26  1  0  0  0  0
 12 27  1  0  0  0  0
 11 28  1  0  0  0  0
 20 29  1  0  0  0  0
  6 30  1  0  0  0  0
 15 31  1  0  0  0  0
 15 32  1  0  0  0  0
  3 33  1  0  0  0  0
 14 34  1  6  0  0  0
 17 35  1  0  0  0  0
  7 36  1  0  0  0  0
  4 37  1  0  0  0  0
 18 38  1  0  0  0  0
 22 39  1  0  0  0  0
 23 40  1  0  0  0  0
 26 41  1  0  0  0  0
  9 42  1  0  0  0  0
M  END
> <Molecule ChEMBL ID>
CHEMBL324842

> <Class(50)>
1

> <Class(80)>
1

>  <salt>
false

>  <StandardizerResult>
Tautomerize (ID: Tautomerize)
Transform (ID: Transform NO2 (1))
Aromatize (ID: Aromatize)
Wedge Clean (ID: Wedge Clean)
Clean 2D (ID: Clean2D)

$$$$
CHEMBL286738
  Mrv2010 08032110442D          

 36 38  0  0  0  0            999 V2000
   -3.8368    2.7060    0.0000 N   0  0  0  0  0  0  0  0  0  0  0  0
   -3.4049    2.0031    0.0000 S   0  0  0  0  0  0  0  0  0  0  0  0
   -4.1078    1.5712    0.0000 O   0  0  0  0  0  0  0  0  0  0  0  0
   -2.7020    2.4350    0.0000 O   0  0  0  0  0  0  0  0  0  0  0  0
   -2.9730    1.3002    0.0000 O   0  0  0  0  0  0  0  0  0  0  0  0
   -2.1483    1.3227    0.0000 C   0  0  0  0  0  0  0  0  0  0  0  0
   -1.7165    0.6198    0.0000 C   0  0  0  0  0  0  0  0  0  0  0  0
   -0.8918    0.6423    0.0000 C   0  0  0  0  0  0  0  0  0  0  0  0
   -0.4990    1.3678    0.0000 C   0  0  0  0  0  0  0  0  0  0  0  0
    0.3257    1.3904    0.0000 C   0  0  0  0  0  0  0  0  0  0  0  0
    0.7186    2.1159    0.0000 C   0  0  0  0  0  0  0  0  0  0  0  0
    0.2867    2.8188    0.0000 C   0  0  0  0  0  0  0  0  0  0  0  0
    0.6795    3.5443    0.0000 O   0  0  0  0  0  0  0  0  0  0  0  0
   -0.5380    2.7962    0.0000 O   0  0  0  0  0  0  0  0  0  0  0  0
   -0.9308    2.0707    0.0000 C   0  0  0  0  0  0  0  0  0  0  0  0
   -1.7555    2.0482    0.0000 C   0  0  0  0  0  0  0  0  0  0  0  0
    1.5307    2.2611    0.0000 C   0  0  0  0  0  0  0  0  0  0  0  0
    2.1506    1.7167    0.0000 C   0  0  0  0  0  0  0  0  0  0  0  0
    2.1114    0.8926    0.0000 C   0  0  0  0  0  0  0  0  0  0  0  0
    1.4427    0.4094    0.0000 C   0  0  0  0  0  0  0  0  0  0  0  0
    0.6480    0.6309    0.0000 C   0  0  0  0  0  0  0  0  0  0  0  0
   -2.1093   -0.1057    0.0000 H   0  0  0  0  0  0  0  0  0  0  0  0
    2.0751    2.8809    0.0000 H   0  0  0  0  0  0  0  0  0  0  0  0
    1.3855    3.0732    0.0000 H   0  0  0  0  0  0  0  0  0  0  0  0
    1.2212   -0.3853    0.0000 H   0  0  0  0  0  0  0  0  0  0  0  0
    1.9259   -0.2593    0.0000 H   0  0  0  0  0  0  0  0  0  0  0  0
    2.5946    0.2239    0.0000 H   0  0  0  0  0  0  0  0  0  0  0  0
    2.9355    0.8535    0.0000 H   0  0  0  0  0  0  0  0  0  0  0  0
   -0.1114    0.3086    0.0000 H   0  0  0  0  0  0  0  0  0  0  0  0
    0.4265   -0.1638    0.0000 H   0  0  0  0  0  0  0  0  0  0  0  0
   -2.1874    2.7511    0.0000 H   0  0  0  0  0  0  0  0  0  0  0  0
    2.9746    1.6775    0.0000 H   0  0  0  0  0  0  0  0  0  0  0  0
    2.6950    2.3365    0.0000 H   0  0  0  0  0  0  0  0  0  0  0  0
   -3.4440    3.4315    0.0000 H   0  0  0  0  0  0  0  0  0  0  0  0
   -4.6615    2.6835    0.0000 H   0  0  0  0  0  0  0  0  0  0  0  0
   -0.4599   -0.0606    0.0000 H   0  0  0  0  0  0  0  0  0  0  0  0
  1  2  1  0  0  0  0
  2  3  2  0  0  0  0
  2  4  2  0  0  0  0
  2  5  1  0  0  0  0
  5  6  1  0  0  0  0
  6  7  4  0  0  0  0
  6 16  4  0  0  0  0
  7  8  4  0  0  0  0
  8  9  4  0  0  0  0
  9 10  1  0  0  0  0
  9 15  4  0  0  0  0
 10 11  2  0  0  0  0
 10 21  1  0  0  0  0
 11 12  1  0  0  0  0
 11 17  1  0  0  0  0
 12 13  2  0  0  0  0
 12 14  1  0  0  0  0
 14 15  1  0  0  0  0
 15 16  4  0  0  0  0
 17 18  1  0  0  0  0
 18 19  1  0  0  0  0
 19 20  1  0  0  0  0
 20 21  1  0  0  0  0
  7 22  1  0  0  0  0
 17 23  1  0  0  0  0
 17 24  1  0  0  0  0
 20 25  1  0  0  0  0
 20 26  1  0  0  0  0
 19 27  1  0  0  0  0
 19 28  1  0  0  0  0
 21 29  1  0  0  0  0
 21 30  1  0  0  0  0
 16 31  1  0  0  0  0
 18 32  1  0  0  0  0
 18 33  1  0  0  0  0
  1 34  1  0  0  0  0
  1 35  1  0  0  0  0
  8 36  1  0  0  0  0
M  END
> <Molecule ChEMBL ID>
CHEMBL286738

> <Class(50)>
1

> <Class(80)>
1

>  <salt>
false

>  <StandardizerResult>
Tautomerize (ID: Tautomerize)
Neutralize (ID: Neutralize)
Aromatize (ID: Aromatize)
Wedge Clean (ID: Wedge Clean)
Clean 2D (ID: Clean2D)

$$$$
CHEMBL4297188
  Mrv2010 08032110442D          

 57 62  0  0  0  0            999 V2000
   -3.0396    1.7041    0.0000 N   0  0  0  0  0  0  0  0  0  0  0  0
   -3.4521    0.9896    0.0000 C   0  0  0  0  0  0  0  0  0  0  0  0
   -4.2771    0.9896    0.0000 N   0  0  0  0  0  0  0  0  0  0  0  0
   -4.6896    0.2751    0.0000 C   0  0  0  0  0  0  0  0  0  0  0  0
   -4.2771   -0.4393    0.0000 C   0  0  0  0  0  0  0  0  0  0  0  0
   -3.4521   -0.4393    0.0000 C   0  0  0  0  0  0  0  0  0  0  0  0
   -3.0396    0.2751    0.0000 C   0  0  0  0  0  0  0  0  0  0  0  0
   -2.2146    0.2751    0.0000 C   0  0  0  0  0  0  0  0  0  0  0  0
   -1.7297    0.9426    0.0000 N   0  0  0  0  0  0  0  0  0  0  0  0
   -0.9451    0.6876    0.0000 C   0  0  0  0  0  0  0  0  0  0  0  0
   -0.2306    1.1001    0.0000 C   0  0  0  0  0  0  0  0  0  0  0  0
    0.4839    0.6876    0.0000 C   0  0  0  0  0  0  0  0  0  0  0  0
    0.4839   -0.1374    0.0000 C   0  0  0  0  0  0  0  0  0  0  0  0
    1.1983   -0.5499    0.0000 C   0  0  0  0  0  0  0  0  0  0  0  0
    1.9128   -0.1374    0.0000 C   0  0  0  0  0  0  0  0  0  0  0  0
    2.6273   -0.5499    0.0000 C   0  0  0  0  0  0  0  0  0  0  0  0
    2.6273   -1.3749    0.0000 C   0  0  0  0  0  0  0  0  0  0  0  0
    1.9128   -1.7874    0.0000 C   0  0  0  0  0  0  0  0  0  0  0  0
    1.1983   -1.3749    0.0000 C   0  0  0  0  0  0  0  0  0  0  0  0
   -0.2306   -0.5499    0.0000 N   0  0  0  0  0  0  0  0  0  0  0  0
   -0.9451   -0.1374    0.0000 C   0  0  0  0  0  0  0  0  0  0  0  0
   -1.7297   -0.3923    0.0000 N   0  0  0  0  0  0  0  0  0  0  0  0
   -1.9846   -1.1769    0.0000 C   0  0  0  0  0  0  0  0  0  0  0  0
   -1.4326   -1.7900    0.0000 C   0  0  0  0  0  0  0  0  0  0  0  0
   -1.6875   -2.5747    0.0000 C   0  0  0  0  0  0  0  0  0  0  0  0
   -2.4945   -2.7462    0.0000 C   0  0  0  0  0  0  0  0  0  0  0  0
   -2.7495   -3.5308    0.0000 C   0  0  0  0  0  0  0  0  0  0  0  0
   -3.5341   -3.2759    0.0000 N   0  0  0  0  0  0  0  0  0  0  0  0
   -1.9648   -3.7857    0.0000 C   0  0  0  0  0  0  0  0  0  0  0  0
   -2.2198   -4.5704    0.0000 C   0  0  0  0  0  0  0  0  0  0  0  0
   -3.0044   -4.3154    0.0000 C   0  0  0  0  0  0  0  0  0  0  0  0
   -3.0465   -2.1331    0.0000 C   0  0  0  0  0  0  0  0  0  0  0  0
   -2.7916   -1.3485    0.0000 C   0  0  0  0  0  0  0  0  0  0  0  0
   -0.2306    1.9251    0.0000 H   0  0  0  0  0  0  0  0  0  0  0  0
   -5.5146    0.2751    0.0000 H   0  0  0  0  0  0  0  0  0  0  0  0
    0.4839   -1.7874    0.0000 H   0  0  0  0  0  0  0  0  0  0  0  0
   -2.2146    1.7041    0.0000 H   0  0  0  0  0  0  0  0  0  0  0  0
   -3.4521    2.4185    0.0000 H   0  0  0  0  0  0  0  0  0  0  0  0
   -0.6256   -1.6185    0.0000 H   0  0  0  0  0  0  0  0  0  0  0  0
    1.9128   -2.6124    0.0000 H   0  0  0  0  0  0  0  0  0  0  0  0
    1.1983    1.1001    0.0000 H   0  0  0  0  0  0  0  0  0  0  0  0
    3.3418   -1.7874    0.0000 H   0  0  0  0  0  0  0  0  0  0  0  0
   -2.2629   -5.3942    0.0000 H   0  0  0  0  0  0  0  0  0  0  0  0
   -1.5279   -5.0197    0.0000 H   0  0  0  0  0  0  0  0  0  0  0  0
   -3.0396   -1.1538    0.0000 H   0  0  0  0  0  0  0  0  0  0  0  0
   -2.6051   -0.5448    0.0000 H   0  0  0  0  0  0  0  0  0  0  0  0
    3.3418   -0.1374    0.0000 H   0  0  0  0  0  0  0  0  0  0  0  0
   -4.6896   -1.1538    0.0000 H   0  0  0  0  0  0  0  0  0  0  0  0
   -3.6739   -1.5973    0.0000 H   0  0  0  0  0  0  0  0  0  0  0  0
   -3.7056   -2.4689    0.0000 H   0  0  0  0  0  0  0  0  0  0  0  0
   -4.1472   -3.8279    0.0000 H   0  0  0  0  0  0  0  0  0  0  0  0
   -1.1355   -3.1877    0.0000 H   0  0  0  0  0  0  0  0  0  0  0  0
    1.9128    0.6876    0.0000 H   0  0  0  0  0  0  0  0  0  0  0  0
   -3.8283   -4.2722    0.0000 H   0  0  0  0  0  0  0  0  0  0  0  0
   -3.4537   -5.0073    0.0000 H   0  0  0  0  0  0  0  0  0  0  0  0
   -1.1410   -3.8289    0.0000 H   0  0  0  0  0  0  0  0  0  0  0  0
   -1.5155   -3.0938    0.0000 H   0  0  0  0  0  0  0  0  0  0  0  0
  1  2  1  0  0  0  0
  2  3  4  0  0  0  0
  2  7  4  0  0  0  0
  3  4  4  0  0  0  0
  4  5  4  0  0  0  0
  5  6  4  0  0  0  0
  6  7  4  0  0  0  0
  7  8  1  0  0  0  0
  8  9  4  0  0  0  0
  8 22  4  0  0  0  0
  9 10  4  0  0  0  0
 10 11  4  0  0  0  0
 10 21  4  0  0  0  0
 11 12  4  0  0  0  0
 12 13  4  0  0  0  0
 13 14  1  0  0  0  0
 13 20  4  0  0  0  0
 14 15  4  0  0  0  0
 14 19  4  0  0  0  0
 15 16  4  0  0  0  0
 16 17  4  0  0  0  0
 17 18  4  0  0  0  0
 18 19  4  0  0  0  0
 20 21  4  0  0  0  0
 21 22  4  0  0  0  0
 22 23  1  0  0  0  0
 23 24  4  0  0  0  0
 23 33  4  0  0  0  0
 24 25  4  0  0  0  0
 25 26  4  0  0  0  0
 26 27  1  0  0  0  0
 26 32  4  0  0  0  0
 27 28  1  0  0  0  0
 27 29  1  0  0  0  0
 27 31  1  0  0  0  0
 29 30  1  0  0  0  0
 30 31  1  0  0  0  0
 32 33  4  0  0  0  0
 11 34  1  0  0  0  0
  4 35  1  0  0  0  0
 19 36  1  0  0  0  0
  1 37  1  0  0  0  0
  1 38  1  0  0  0  0
 24 39  1  0  0  0  0
 18 40  1  0  0  0  0
 12 41  1  0  0  0  0
 17 42  1  0  0  0  0
 30 43  1  0  0  0  0
 30 44  1  0  0  0  0
  6 45  1  0  0  0  0
 33 46  1  0  0  0  0
 16 47  1  0  0  0  0
  5 48  1  0  0  0  0
 32 49  1  0  0  0  0
 28 50  1  0  0  0  0
 28 51  1  0  0  0  0
 25 52  1  0  0  0  0
 15 53  1  0  0  0  0
 31 54  1  0  0  0  0
 31 55  1  0  0  0  0
 29 56  1  0  0  0  0
 29 57  1  0  0  0  0
M  END
> <Molecule ChEMBL ID>
CHEMBL4297188

> <Class(50)>
1

> <Class(80)>
1

>  <salt>
false

>  <StandardizerResult>
Tautomerize (ID: Tautomerize)
Neutralize (ID: Neutralize)
Aromatize (ID: Aromatize)
Wedge Clean (ID: Wedge Clean)
Clean 2D (ID: Clean2D)

$$$$
CHEMBL119171
  Mrv2010 08032110442D          

 33 35  0  0  1  0            999 V2000
    1.2125   -1.0896    0.0000 N   0  0  0  0  0  0  0  0  0  0  0  0
    0.4980   -1.5021    0.0000 C   0  0  0  0  0  0  0  0  0  0  0  0
    0.4980   -2.3271    0.0000 N   0  0  0  0  0  0  0  0  0  0  0  0
   -0.2164   -2.7396    0.0000 C   0  0  0  0  0  0  0  0  0  0  0  0
   -0.2164   -3.5646    0.0000 S   0  0  0  0  0  0  0  0  0  0  0  0
   -0.9309   -2.3271    0.0000 C   0  0  0  0  0  0  0  0  0  0  0  0
   -1.7155   -2.5820    0.0000 N   0  0  0  0  0  0  0  0  0  0  0  0
   -2.2005   -1.9146    0.0000 C   0  0  0  0  0  0  0  0  0  0  0  0
   -1.7155   -1.2471    0.0000 N   0  0  0  0  0  0  0  0  0  0  0  0
   -1.9705   -0.4625    0.0000 C   0  0  0  0  0  0  0  0  0  0  0  0
   -2.7551   -0.2076    0.0000 O   0  0  0  0  0  0  0  0  0  0  0  0
   -2.7551    0.6174    0.0000 C   0  0  0  0  0  0  0  0  0  0  0  0
   -3.4225    1.1024    0.0000 C   0  0  0  0  0  0  0  0  0  0  0  0
   -4.1762    0.7668    0.0000 O   0  0  0  0  0  0  0  0  0  0  0  0
   -1.9705    0.8724    0.0000 C   0  0  0  0  0  0  0  0  0  0  0  0
   -1.7155    1.6570    0.0000 O   0  0  0  0  0  0  0  0  0  0  0  0
   -1.4855    0.2049    0.0000 C   0  0  0  0  0  0  0  0  0  0  0  0
   -0.6605    0.2049    0.0000 O   0  0  0  0  0  0  0  0  0  0  0  0
   -0.9309   -1.5021    0.0000 C   0  0  0  0  0  0  0  0  0  0  0  0
   -0.2164   -1.0896    0.0000 N   0  0  0  0  0  0  0  0  0  0  0  0
   -1.1556   -0.5916    0.0000 H   0  0  0  0  0  0  0  0  0  0  0  0
   -2.3105    0.2049    0.0000 H   0  0  0  0  0  0  0  0  0  0  0  0
    0.1645    0.2049    0.0000 H   0  0  0  0  0  0  0  0  0  0  0  0
    1.9270   -1.5021    0.0000 H   0  0  0  0  0  0  0  0  0  0  0  0
    1.2125   -0.2646    0.0000 H   0  0  0  0  0  0  0  0  0  0  0  0
   -1.4631    2.4424    0.0000 H   0  0  0  0  0  0  0  0  0  0  0  0
   -4.6914    0.1225    0.0000 H   0  0  0  0  0  0  0  0  0  0  0  0
   -1.1556    1.0014    0.0000 H   0  0  0  0  0  0  0  0  0  0  0  0
   -0.2164   -0.2646    0.0000 H   0  0  0  0  0  0  0  0  0  0  0  0
   -3.0255   -1.9146    0.0000 H   0  0  0  0  0  0  0  0  0  0  0  0
   -3.4669    1.9262    0.0000 H   0  0  0  0  0  0  0  0  0  0  0  0
   -3.9896    1.7016    0.0000 H   0  0  0  0  0  0  0  0  0  0  0  0
   -2.6260    1.4323    0.0000 H   0  0  0  0  0  0  0  0  0  0  0  0
  1  2  1  0  0  0  0
  2  3  2  0  0  0  0
  2 20  1  0  0  0  0
  3  4  1  0  0  0  0
  4  5  2  0  0  0  0
  4  6  1  0  0  0  0
  6  7  4  0  0  0  0
  6 19  4  0  0  0  0
  7  8  4  0  0  0  0
  8  9  4  0  0  0  0
  9 10  1  0  0  0  0
  9 19  4  0  0  0  0
 10 11  1  0  0  0  0
 10 17  1  0  0  0  0
 11 12  1  0  0  0  0
 12 13  1  0  0  0  0
 12 15  1  0  0  0  0
 13 14  1  0  0  0  0
 15 16  1  0  0  0  0
 15 17  1  0  0  0  0
 17 18  1  0  0  0  0
 19 20  1  0  0  0  0
 10 21  1  0  0  0  0
 17 22  1  0  0  0  0
 18 23  1  0  0  0  0
  1 24  1  0  0  0  0
  1 25  1  0  0  0  0
 16 26  1  0  0  0  0
 14 27  1  0  0  0  0
 15 28  1  0  0  0  0
 20 29  1  0  0  0  0
  8 30  1  0  0  0  0
 13 31  1  0  0  0  0
 13 32  1  0  0  0  0
 12 33  1  0  0  0  0
M  END
> <Molecule ChEMBL ID>
CHEMBL119171

> <Class(50)>
1

> <Class(80)>
1

>  <salt>
false

>  <StandardizerResult>
Tautomerize (ID: Tautomerize)
Transform (ID: Transform NO2 (1))
Aromatize (ID: Aromatize)
Wedge Clean (ID: Wedge Clean)
Clean 2D (ID: Clean2D)

$$$$
CHEMBL585
  Mrv2010 08032110442D          

 30 32  0  0  0  0            999 V2000
   -4.8900   -0.8184    0.0000 N   0  0  0  0  0  0  0  0  0  0  0  0
   -4.1755   -0.4059    0.0000 C   0  0  0  0  0  0  0  0  0  0  0  0
   -4.1755    0.4191    0.0000 N   0  0  0  0  0  0  0  0  0  0  0  0
   -3.4610    0.8316    0.0000 C   0  0  0  0  0  0  0  0  0  0  0  0
   -3.4610    1.6566    0.0000 N   0  0  0  0  0  0  0  0  0  0  0  0
   -2.7465    0.4191    0.0000 C   0  0  0  0  0  0  0  0  0  0  0  0
   -2.0321    0.8316    0.0000 N   0  0  0  0  0  0  0  0  0  0  0  0
   -1.3176    0.4191    0.0000 C   0  0  0  0  0  0  0  0  0  0  0  0
   -0.6031    0.8316    0.0000 C   0  0  0  0  0  0  0  0  0  0  0  0
   -0.6031    1.6566    0.0000 C   0  0  0  0  0  0  0  0  0  0  0  0
    0.1113    2.0691    0.0000 C   0  0  0  0  0  0  0  0  0  0  0  0
    0.8258    1.6566    0.0000 C   0  0  0  0  0  0  0  0  0  0  0  0
    0.8258    0.8316    0.0000 C   0  0  0  0  0  0  0  0  0  0  0  0
    0.1113    0.4191    0.0000 C   0  0  0  0  0  0  0  0  0  0  0  0
   -1.3176   -0.4059    0.0000 C   0  0  0  0  0  0  0  0  0  0  0  0
   -0.6031   -0.8184    0.0000 N   0  0  0  0  0  0  0  0  0  0  0  0
   -2.0321   -0.8184    0.0000 N   0  0  0  0  0  0  0  0  0  0  0  0
   -2.7465   -0.4059    0.0000 C   0  0  0  0  0  0  0  0  0  0  0  0
   -3.4610   -0.8184    0.0000 N   0  0  0  0  0  0  0  0  0  0  0  0
   -2.7465    2.0691    0.0000 H   0  0  0  0  0  0  0  0  0  0  0  0
   -4.1755    2.0691    0.0000 H   0  0  0  0  0  0  0  0  0  0  0  0
    1.5403    0.4191    0.0000 H   0  0  0  0  0  0  0  0  0  0  0  0
    0.1113   -0.4059    0.0000 H   0  0  0  0  0  0  0  0  0  0  0  0
    0.1113    2.8941    0.0000 H   0  0  0  0  0  0  0  0  0  0  0  0
    1.5403    2.0691    0.0000 H   0  0  0  0  0  0  0  0  0  0  0  0
   -5.6044   -0.4059    0.0000 H   0  0  0  0  0  0  0  0  0  0  0  0
   -4.8900   -1.6434    0.0000 H   0  0  0  0  0  0  0  0  0  0  0  0
   -1.3176    2.0691    0.0000 H   0  0  0  0  0  0  0  0  0  0  0  0
   -0.9734   -1.5556    0.0000 H   0  0  0  0  0  0  0  0  0  0  0  0
   -0.2329   -1.5556    0.0000 H   0  0  0  0  0  0  0  0  0  0  0  0
  1  2  1  0  0  0  0
  2  3  4  0  0  0  0
  2 19  4  0  0  0  0
  3  4  4  0  0  0  0
  4  5  1  0  0  0  0
  4  6  4  0  0  0  0
  6  7  4  0  0  0  0
  6 18  4  0  0  0  0
  7  8  4  0  0  0  0
  8  9  1  0  0  0  0
  8 15  4  0  0  0  0
  9 10  4  0  0  0  0
  9 14  4  0  0  0  0
 10 11  4  0  0  0  0
 11 12  4  0  0  0  0
 12 13  4  0  0  0  0
 13 14  4  0  0  0  0
 15 16  1  0  0  0  0
 15 17  4  0  0  0  0
 17 18  4  0  0  0  0
 18 19  4  0  0  0  0
  5 20  1  0  0  0  0
  5 21  1  0  0  0  0
 13 22  1  0  0  0  0
 14 23  1  0  0  0  0
 11 24  1  0  0  0  0
 12 25  1  0  0  0  0
  1 26  1  0  0  0  0
  1 27  1  0  0  0  0
 10 28  1  0  0  0  0
 16 29  1  0  0  0  0
 16 30  1  0  0  0  0
M  END
> <Molecule ChEMBL ID>
CHEMBL585

> <Class(50)>
1

> <Class(80)>
1

>  <salt>
false

>  <StandardizerResult>
Tautomerize (ID: Tautomerize)
Neutralize (ID: Neutralize)
Aromatize (ID: Aromatize)
Wedge Clean (ID: Wedge Clean)
Clean 2D (ID: Clean2D)

$$$$
CHEMBL55400
  Mrv2010 08032110442D          

 27 29  0  0  0  0            999 V2000
   -4.0496    0.0605    0.0000 N   0  0  0  0  0  0  0  0  0  0  0  0
   -3.3351    0.4730    0.0000 C   0  0  0  0  0  0  0  0  0  0  0  0
   -3.3351    1.2980    0.0000 C   0  0  0  0  0  0  0  0  0  0  0  0
   -2.6206    1.7105    0.0000 C   0  0  0  0  0  0  0  0  0  0  0  0
   -1.9062    1.2980    0.0000 C   0  0  0  0  0  0  0  0  0  0  0  0
   -1.1917    1.7105    0.0000 C   0  0  0  0  0  0  0  0  0  0  0  0
   -0.4772    1.2980    0.0000 C   0  0  0  0  0  0  0  0  0  0  0  0
    0.2372    1.7105    0.0000 C   0  0  0  0  0  0  0  0  0  0  0  0
    0.9517    1.2980    0.0000 C   0  0  0  0  0  0  0  0  0  0  0  0
    0.9517    0.4730    0.0000 C   0  0  0  0  0  0  0  0  0  0  0  0
    1.6662    0.0605    0.0000 N   0  0  0  0  0  0  0  0  0  0  0  0
    0.2372    0.0605    0.0000 C   0  0  0  0  0  0  0  0  0  0  0  0
   -0.4772    0.4730    0.0000 C   0  0  0  0  0  0  0  0  0  0  0  0
   -1.1917    0.0605    0.0000 N   0  0  0  0  0  0  0  0  0  0  0  0
   -1.9062    0.4730    0.0000 C   0  0  0  0  0  0  0  0  0  0  0  0
   -2.6206    0.0605    0.0000 C   0  0  0  0  0  0  0  0  0  0  0  0
    1.6662    1.7105    0.0000 H   0  0  0  0  0  0  0  0  0  0  0  0
   -4.0496    1.7105    0.0000 H   0  0  0  0  0  0  0  0  0  0  0  0
    1.6662   -0.7645    0.0000 H   0  0  0  0  0  0  0  0  0  0  0  0
    2.3807    0.4730    0.0000 H   0  0  0  0  0  0  0  0  0  0  0  0
   -2.6206    2.5355    0.0000 H   0  0  0  0  0  0  0  0  0  0  0  0
   -2.6206   -0.7645    0.0000 H   0  0  0  0  0  0  0  0  0  0  0  0
   -4.7640    0.4730    0.0000 H   0  0  0  0  0  0  0  0  0  0  0  0
   -4.0496   -0.7645    0.0000 H   0  0  0  0  0  0  0  0  0  0  0  0
   -1.1917    2.5355    0.0000 H   0  0  0  0  0  0  0  0  0  0  0  0
    0.2372   -0.7645    0.0000 H   0  0  0  0  0  0  0  0  0  0  0  0
    0.2372    2.5355    0.0000 H   0  0  0  0  0  0  0  0  0  0  0  0
  1  2  1  0  0  0  0
  2  3  4  0  0  0  0
  2 16  4  0  0  0  0
  3  4  4  0  0  0  0
  4  5  4  0  0  0  0
  5  6  4  0  0  0  0
  5 15  4  0  0  0  0
  6  7  4  0  0  0  0
  7  8  4  0  0  0  0
  7 13  4  0  0  0  0
  8  9  4  0  0  0  0
  9 10  4  0  0  0  0
 10 11  1  0  0  0  0
 10 12  4  0  0  0  0
 12 13  4  0  0  0  0
 13 14  4  0  0  0  0
 14 15  4  0  0  0  0
 15 16  4  0  0  0  0
  9 17  1  0  0  0  0
  3 18  1  0  0  0  0
 11 19  1  0  0  0  0
 11 20  1  0  0  0  0
  4 21  1  0  0  0  0
 16 22  1  0  0  0  0
  1 23  1  0  0  0  0
  1 24  1  0  0  0  0
  6 25  1  0  0  0  0
 12 26  1  0  0  0  0
  8 27  1  0  0  0  0
M  END
> <Molecule ChEMBL ID>
CHEMBL55400

> <Class(50)>
1

> <Class(80)>
1

>  <salt>
false

>  <StandardizerResult>
Tautomerize (ID: Tautomerize)
Neutralize (ID: Neutralize)
Aromatize (ID: Aromatize)
Wedge Clean (ID: Wedge Clean)
Clean 2D (ID: Clean2D)

$$$$
CHEMBL1382627
  Mrv2010 08032110442D          

 27 28  0  0  1  0            999 V2000
   -0.6639    2.2260    0.0000 N   0  0  0  0  0  0  0  0  0  0  0  0
   -0.6639    1.4010    0.0000 C   0  0  0  0  0  0  0  0  0  0  0  0
    0.0505    0.9885    0.0000 C   0  0  0  0  0  0  0  0  0  0  0  0
    0.0505    0.1635    0.0000 C   0  0  0  0  0  0  0  0  0  0  0  0
   -0.6639   -0.2490    0.0000 C   0  0  0  0  0  0  0  0  0  0  0  0
   -0.6639   -1.0740    0.0000 S   0  0  0  0  0  0  0  0  0  0  0  0
    0.1611   -1.0740    0.0000 O   0  0  0  0  0  0  0  0  0  0  0  0
   -1.4889   -1.0740    0.0000 O   0  0  0  0  0  0  0  0  0  0  0  0
   -0.6639   -1.8990    0.0000 N   0  0  0  0  0  0  0  0  0  0  0  0
   -1.3784   -2.3115    0.0000 C   0  0  0  0  0  0  0  0  0  0  0  0
   -1.3784   -3.1365    0.0000 N   0  0  0  0  0  0  0  0  0  0  0  0
   -2.0929   -3.5490    0.0000 C   0  0  0  0  0  0  0  0  0  0  0  0
   -2.8073   -3.1365    0.0000 C   0  0  0  0  0  0  0  0  0  0  0  0
   -2.8073   -2.3115    0.0000 C   0  0  0  0  0  0  0  0  0  0  0  0
   -2.0929   -1.8990    0.0000 N   0  0  0  0  0  0  0  0  0  0  0  0
   -1.3784    0.1635    0.0000 C   0  0  0  0  0  0  0  0  0  0  0  0
   -1.3784    0.9885    0.0000 C   0  0  0  0  0  0  0  0  0  0  0  0
    0.0505    2.6385    0.0000 H   0  0  0  0  0  0  0  0  0  0  0  0
   -1.3784    2.6385    0.0000 H   0  0  0  0  0  0  0  0  0  0  0  0
    0.7650    1.4010    0.0000 H   0  0  0  0  0  0  0  0  0  0  0  0
   -1.8141    1.6891    0.0000 H   0  0  0  0  0  0  0  0  0  0  0  0
   -3.5218   -1.8990    0.0000 H   0  0  0  0  0  0  0  0  0  0  0  0
   -1.9014   -0.3596    0.0000 H   0  0  0  0  0  0  0  0  0  0  0  0
   -3.5218   -3.5490    0.0000 H   0  0  0  0  0  0  0  0  0  0  0  0
   -2.1406    0.4792    0.0000 H   0  0  0  0  0  0  0  0  0  0  0  0
   -2.0929   -4.3740    0.0000 H   0  0  0  0  0  0  0  0  0  0  0  0
    0.7650   -0.2490    0.0000 H   0  0  0  0  0  0  0  0  0  0  0  0
  1  2  1  0  0  0  0
  2  3  4  0  0  0  0
  2 17  4  0  0  0  0
  3  4  4  0  0  0  0
  4  5  4  0  0  0  0
  5  6  1  0  0  0  0
  5 16  4  0  0  0  0
  6  7  2  0  0  0  0
  6  8  1  0  0  0  0
  6  9  2  0  0  0  0
  9 10  1  0  0  0  0
 10 11  4  0  0  0  0
 10 15  4  0  0  0  0
 11 12  4  0  0  0  0
 12 13  4  0  0  0  0
 13 14  4  0  0  0  0
 14 15  4  0  0  0  0
 16 17  4  0  0  0  0
  1 18  1  0  0  0  0
  1 19  1  0  0  0  0
  3 20  1  0  0  0  0
 17 21  1  0  0  0  0
 14 22  1  0  0  0  0
  8 23  1  0  0  0  0
 13 24  1  0  0  0  0
 16 25  1  0  0  0  0
 12 26  1  0  0  0  0
  4 27  1  0  0  0  0
M  END
> <Molecule ChEMBL ID>
CHEMBL1382627

> <Class(50)>
1

> <Class(80)>
1

>  <salt>
true

>  <StandardizerResult>
Tautomerize (ID: Tautomerize)
Transform (ID: Transform NO2 (1))
Aromatize (ID: Aromatize)
Wedge Clean (ID: Wedge Clean)
Clean 2D (ID: Clean2D)

$$$$
CHEMBL449298
  Mrv2010 08032110442D          

 20 21  0  0  0  0            999 V2000
   -0.7723   -2.3217    0.0000 N   0  0  0  0  0  0  0  0  0  0  0  0
   -0.7723   -1.4967    0.0000 C   0  0  0  0  0  0  0  0  0  0  0  0
   -1.4868   -1.0842    0.0000 C   0  0  0  0  0  0  0  0  0  0  0  0
   -1.4868   -0.2592    0.0000 C   0  0  0  0  0  0  0  0  0  0  0  0
   -0.7723    0.1533    0.0000 C   0  0  0  0  0  0  0  0  0  0  0  0
   -0.7723    0.9783    0.0000 O   0  0  0  0  0  0  0  0  0  0  0  0
   -0.0578   -0.2592    0.0000 C   0  0  0  0  0  0  0  0  0  0  0  0
    0.6566    0.1533    0.0000 N   0  0  0  0  0  0  0  0  0  0  0  0
    1.3711   -0.2592    0.0000 C   0  0  0  0  0  0  0  0  0  0  0  0
    1.3711   -1.0842    0.0000 C   0  0  0  0  0  0  0  0  0  0  0  0
    0.6566   -1.4967    0.0000 C   0  0  0  0  0  0  0  0  0  0  0  0
   -0.0578   -1.0842    0.0000 C   0  0  0  0  0  0  0  0  0  0  0  0
   -2.2012   -1.4967    0.0000 H   0  0  0  0  0  0  0  0  0  0  0  0
   -2.2012    0.1533    0.0000 H   0  0  0  0  0  0  0  0  0  0  0  0
    2.0856   -1.4967    0.0000 H   0  0  0  0  0  0  0  0  0  0  0  0
   -1.4868   -2.7342    0.0000 H   0  0  0  0  0  0  0  0  0  0  0  0
   -0.0578   -2.7342    0.0000 H   0  0  0  0  0  0  0  0  0  0  0  0
   -0.0578    1.3908    0.0000 H   0  0  0  0  0  0  0  0  0  0  0  0
    0.6566   -2.3217    0.0000 H   0  0  0  0  0  0  0  0  0  0  0  0
    2.0856    0.1533    0.0000 H   0  0  0  0  0  0  0  0  0  0  0  0
  1  2  1  0  0  0  0
  2  3  4  0  0  0  0
  2 12  4  0  0  0  0
  3  4  4  0  0  0  0
  4  5  4  0  0  0  0
  5  6  1  0  0  0  0
  5  7  4  0  0  0  0
  7  8  4  0  0  0  0
  7 12  4  0  0  0  0
  8  9  4  0  0  0  0
  9 10  4  0  0  0  0
 10 11  4  0  0  0  0
 11 12  4  0  0  0  0
  3 13  1  0  0  0  0
  4 14  1  0  0  0  0
 10 15  1  0  0  0  0
  1 16  1  0  0  0  0
  1 17  1  0  0  0  0
  6 18  1  0  0  0  0
 11 19  1  0  0  0  0
  9 20  1  0  0  0  0
M  END
> <Molecule ChEMBL ID>
CHEMBL449298

> <Class(50)>
1

> <Class(80)>
1

>  <salt>
false

>  <StandardizerResult>
Tautomerize (ID: Tautomerize)
Neutralize (ID: Neutralize)
Aromatize (ID: Aromatize)
Wedge Clean (ID: Wedge Clean)
Clean 2D (ID: Clean2D)

$$$$
CHEMBL291143
  Mrv2010 08032110442D          

 51 55  0  0  1  0            999 V2000
    1.2268   -3.0134    0.0000 N   0  0  0  0  0  0  0  0  0  0  0  0
    1.2267   -2.1884    0.0000 C   0  0  0  0  0  0  0  0  0  0  0  0
    0.5123   -1.7759    0.0000 C   0  0  1  0  0  0  0  0  0  0  0  0
    0.5122   -0.9509    0.0000 O   0  0  0  0  0  0  0  0  0  0  0  0
   -0.2023   -0.5385    0.0000 C   0  0  1  0  0  0  0  0  0  0  0  0
   -0.2023    0.2865    0.0000 C   0  0  0  0  0  0  0  0  0  0  0  0
   -0.9377   -0.0872    0.0000 C   0  0  0  0  0  0  0  0  0  0  0  0
   -0.4883    0.7031    0.0000 C   0  0  0  0  0  0  0  0  0  0  0  0
   -0.4883    1.4505    0.0000 C   0  0  0  0  0  0  0  0  0  0  0  0
    0.2472    1.8242    0.0000 C   0  0  0  0  0  0  0  0  0  0  0  0
    0.9828    1.4505    0.0000 C   0  0  0  0  0  0  0  0  0  0  0  0
    0.9828    0.7031    0.0000 C   0  0  0  0  0  0  0  0  0  0  0  0
    0.2472    0.3294    0.0000 C   0  0  0  0  0  0  0  0  0  0  0  0
    0.5333   -0.0872    0.0000 C   0  0  0  0  0  0  0  0  0  0  0  0
   -0.2023    1.0339    0.0000 C   0  0  0  0  0  0  0  0  0  0  0  0
   -0.9167   -0.9510    0.0000 C   0  0  0  0  0  0  0  0  0  0  0  0
   -0.9167   -1.7760    0.0000 C   0  0  0  0  0  0  0  0  0  0  0  0
   -0.2022   -2.1885    0.0000 C   0  0  0  0  0  0  0  0  0  0  0  0
   -0.2021   -3.0135    0.0000 C   0  0  0  0  0  0  0  0  0  0  0  0
   -0.9166   -3.4260    0.0000 C   0  0  0  0  0  0  0  0  0  0  0  0
   -1.6311   -3.0136    0.0000 C   0  0  0  0  0  0  0  0  0  0  0  0
   -2.3455   -3.4261    0.0000 O   0  0  0  0  0  0  0  0  0  0  0  0
   -1.6311   -2.1886    0.0000 C   0  0  0  0  0  0  0  0  0  0  0  0
   -2.3456   -1.7761    0.0000 O   0  0  0  0  0  0  0  0  0  0  0  0
   -0.2021   -3.8385    0.0000 H   0  0  0  0  0  0  0  0  0  0  0  0
   -1.2859    0.9140    0.0000 H   0  0  0  0  0  0  0  0  0  0  0  0
    0.4492    1.5400    0.0000 H   0  0  0  0  0  0  0  0  0  0  0  0
   -1.0261    1.0798    0.0000 H   0  0  0  0  0  0  0  0  0  0  0  0
   -1.6378   -0.5502    0.0000 H   0  0  0  0  0  0  0  0  0  0  0  0
   -1.6278   -1.3693    0.0000 H   0  0  0  0  0  0  0  0  0  0  0  0
    0.2471    2.6492    0.0000 H   0  0  0  0  0  0  0  0  0  0  0  0
   -0.6267    2.2638    0.0000 H   0  0  0  0  0  0  0  0  0  0  0  0
   -1.1314    1.9674    0.0000 H   0  0  0  0  0  0  0  0  0  0  0  0
   -1.3291   -4.1405    0.0000 H   0  0  0  0  0  0  0  0  0  0  0  0
    0.5123   -2.6009    0.0000 H   0  0  0  0  0  0  0  0  0  0  0  0
    0.5123   -3.4259    0.0000 H   0  0  0  0  0  0  0  0  0  0  0  0
    1.9413   -3.4259    0.0000 H   0  0  0  0  0  0  0  0  0  0  0  0
    1.8052    1.5156    0.0000 H   0  0  0  0  0  0  0  0  0  0  0  0
    1.4133    2.1543    0.0000 H   0  0  0  0  0  0  0  0  0  0  0  0
    1.1577   -0.6263    0.0000 H   0  0  0  0  0  0  0  0  0  0  0  0
    1.3463    0.0530    0.0000 H   0  0  0  0  0  0  0  0  0  0  0  0
   -0.2022   -1.3635    0.0000 H   0  0  0  0  0  0  0  0  0  0  0  0
    0.6745    1.0351    0.0000 H   0  0  0  0  0  0  0  0  0  0  0  0
    0.2375    1.1544    0.0000 H   0  0  0  0  0  0  0  0  0  0  0  0
   -1.5917    0.4158    0.0000 H   0  0  0  0  0  0  0  0  0  0  0  0
   -1.7518   -0.2209    0.0000 H   0  0  0  0  0  0  0  0  0  0  0  0
    1.7803    0.4922    0.0000 H   0  0  0  0  0  0  0  0  0  0  0  0
   -3.0600   -3.0136    0.0000 H   0  0  0  0  0  0  0  0  0  0  0  0
   -3.1706   -1.7728    0.0000 H   0  0  0  0  0  0  0  0  0  0  0  0
    2.0503   -2.1404    0.0000 H   0  0  0  0  0  0  0  0  0  0  0  0
    1.6801   -1.4991    0.0000 H   0  0  0  0  0  0  0  0  0  0  0  0
  1  2  1  0  0  0  0
  3  2  1  0  0  0  0
  3  4  1  0  0  0  0
  3 18  1  0  0  0  0
  5  4  1  0  0  0  0
  5  6  1  0  0  0  0
  5 16  1  0  0  0  0
  6  7  1  0  0  0  0
  6 14  1  0  0  0  0
 12 14  1  0  0  0  0
  7  8  1  0  0  0  0
 12 13  1  0  0  0  0
  8 13  1  0  0  0  0
  9 10  1  0  0  0  0
 10 11  1  0  0  0  0
 10 15  1  0  0  0  0
 11 12  1  0  0  0  0
  8  9  1  0  0  0  0
  6 15  1  0  0  0  0
 16 17  1  0  0  0  0
 17 18  4  0  0  0  0
 17 23  4  0  0  0  0
 18 19  4  0  0  0  0
 19 20  4  0  0  0  0
 20 21  4  0  0  0  0
 21 22  1  0  0  0  0
 21 23  4  0  0  0  0
 23 24  1  0  0  0  0
 19 25  1  0  0  0  0
  8 26  1  0  0  0  0
 15 27  1  0  0  0  0
 15 28  1  0  0  0  0
 16 29  1  0  0  0  0
 16 30  1  0  0  0  0
 10 31  1  0  0  0  0
  9 32  1  0  0  0  0
  9 33  1  0  0  0  0
 20 34  1  0  0  0  0
  3 35  1  1  0  0  0
  1 36  1  0  0  0  0
  1 37  1  0  0  0  0
 11 38  1  0  0  0  0
 11 39  1  0  0  0  0
 14 40  1  0  0  0  0
 14 41  1  0  0  0  0
  5 42  1  1  0  0  0
 13 43  1  0  0  0  0
 13 44  1  0  0  0  0
  7 45  1  0  0  0  0
  7 46  1  0  0  0  0
 12 47  1  0  0  0  0
 22 48  1  0  0  0  0
 24 49  1  0  0  0  0
  2 50  1  0  0  0  0
  2 51  1  0  0  0  0
M  END
> <Molecule ChEMBL ID>
CHEMBL291143

> <Class(50)>
1

> <Class(80)>
1

>  <salt>
false

>  <StandardizerResult>
Tautomerize (ID: Tautomerize)
Transform (ID: Transform NO2 (1))
Aromatize (ID: Aromatize)
Wedge Clean (ID: Wedge Clean)
Clean 2D (ID: Clean2D)

$$$$
CHEMBL1096979
  Mrv2010 08032110442D          

 33 33  0  0  1  0            999 V2000
   -0.2663    0.8279    0.0000 N   0  0  0  0  0  0  0  0  0  0  0  0
   -0.2663    0.0029    0.0000 C   0  0  1  0  0  0  0  0  0  0  0  0
   -0.9808   -0.4096    0.0000 C   0  0  0  0  0  0  0  0  0  0  0  0
   -1.6953    0.0029    0.0000 O   0  0  0  0  0  0  0  0  0  0  0  0
    0.4481   -0.4096    0.0000 C   0  0  0  0  0  0  0  0  0  0  0  0
    0.4481   -1.2346    0.0000 O   0  0  0  0  0  0  0  0  0  0  0  0
    1.1626    0.0029    0.0000 N   0  0  0  0  0  0  0  0  0  0  0  0
    1.8771   -0.4096    0.0000 N   0  0  0  0  0  0  0  0  0  0  0  0
    2.5915    0.0029    0.0000 C   0  0  0  0  0  0  0  0  0  0  0  0
    3.3060   -0.4096    0.0000 C   0  0  0  0  0  0  0  0  0  0  0  0
    4.0205    0.0029    0.0000 C   0  0  0  0  0  0  0  0  0  0  0  0
    4.7350   -0.4096    0.0000 C   0  0  0  0  0  0  0  0  0  0  0  0
    4.7350   -1.2346    0.0000 C   0  0  0  0  0  0  0  0  0  0  0  0
    5.4494   -1.6471    0.0000 O   0  0  0  0  0  0  0  0  0  0  0  0
    4.0205   -1.6471    0.0000 C   0  0  0  0  0  0  0  0  0  0  0  0
    4.0205   -2.4721    0.0000 O   0  0  0  0  0  0  0  0  0  0  0  0
    3.3060   -1.2346    0.0000 C   0  0  0  0  0  0  0  0  0  0  0  0
    2.5915   -1.6471    0.0000 O   0  0  0  0  0  0  0  0  0  0  0  0
    0.4481    1.2404    0.0000 H   0  0  0  0  0  0  0  0  0  0  0  0
   -0.9808    1.2404    0.0000 H   0  0  0  0  0  0  0  0  0  0  0  0
    2.9618    0.7401    0.0000 H   0  0  0  0  0  0  0  0  0  0  0  0
    2.2213    0.7401    0.0000 H   0  0  0  0  0  0  0  0  0  0  0  0
   -2.5203    0.0029    0.0000 H   0  0  0  0  0  0  0  0  0  0  0  0
    2.5915   -2.4721    0.0000 H   0  0  0  0  0  0  0  0  0  0  0  0
   -1.3511   -1.1469    0.0000 H   0  0  0  0  0  0  0  0  0  0  0  0
   -0.6106   -1.1469    0.0000 H   0  0  0  0  0  0  0  0  0  0  0  0
    4.0205    0.8279    0.0000 H   0  0  0  0  0  0  0  0  0  0  0  0
    5.4494    0.0029    0.0000 H   0  0  0  0  0  0  0  0  0  0  0  0
    1.8771   -1.2346    0.0000 H   0  0  0  0  0  0  0  0  0  0  0  0
    5.4494   -2.4721    0.0000 H   0  0  0  0  0  0  0  0  0  0  0  0
   -0.9808    0.4154    0.0000 H   0  0  0  0  0  0  0  0  0  0  0  0
    1.1626    0.8279    0.0000 H   0  0  0  0  0  0  0  0  0  0  0  0
    3.3060   -2.8846    0.0000 H   0  0  0  0  0  0  0  0  0  0  0  0
  2  1  1  0  0  0  0
  2  3  1  0  0  0  0
  2  5  1  0  0  0  0
  3  4  1  0  0  0  0
  5  6  2  0  0  0  0
  5  7  1  0  0  0  0
  7  8  1  0  0  0  0
  8  9  1  0  0  0  0
  9 10  1  0  0  0  0
 10 11  4  0  0  0  0
 10 17  4  0  0  0  0
 11 12  4  0  0  0  0
 12 13  4  0  0  0  0
 13 14  1  0  0  0  0
 13 15  4  0  0  0  0
 15 16  1  0  0  0  0
 15 17  4  0  0  0  0
 17 18  1  0  0  0  0
  1 19  1  0  0  0  0
  1 20  1  0  0  0  0
  9 21  1  0  0  0  0
  9 22  1  0  0  0  0
  4 23  1  0  0  0  0
 18 24  1  0  0  0  0
  3 25  1  0  0  0  0
  3 26  1  0  0  0  0
 11 27  1  0  0  0  0
 12 28  1  0  0  0  0
  8 29  1  0  0  0  0
 14 30  1  0  0  0  0
  2 31  1  1  0  0  0
  7 32  1  0  0  0  0
 16 33  1  0  0  0  0
M  END
> <Molecule ChEMBL ID>
CHEMBL1096979

> <Class(50)>
1

> <Class(80)>
1

>  <salt>
false

>  <StandardizerResult>
Tautomerize (ID: Tautomerize)
Transform (ID: Transform NO2 (1))
Aromatize (ID: Aromatize)
Wedge Clean (ID: Wedge Clean)
Clean 2D (ID: Clean2D)

$$$$
CHEMBL221722
  Mrv2010 08032110442D          

 15 15  0  0  0  0            999 V2000
    0.0462    1.4924    0.0000 N   0  0  0  0  0  0  0  0  0  0  0  0
    0.7607    1.0799    0.0000 C   0  0  0  0  0  0  0  0  0  0  0  0
    1.4751    1.4924    0.0000 O   0  0  0  0  0  0  0  0  0  0  0  0
    0.7607    0.2549    0.0000 C   0  0  0  0  0  0  0  0  0  0  0  0
    1.4751   -0.1576    0.0000 N   0  0  0  0  0  0  0  0  0  0  0  0
    1.4751   -0.9826    0.0000 C   0  0  0  0  0  0  0  0  0  0  0  0
    2.1896   -1.3951    0.0000 F   0  0  0  0  0  0  0  0  0  0  0  0
    0.7607   -1.3951    0.0000 C   0  0  0  0  0  0  0  0  0  0  0  0
    0.0462   -0.9826    0.0000 N   0  0  0  0  0  0  0  0  0  0  0  0
    0.0462   -0.1576    0.0000 C   0  0  0  0  0  0  0  0  0  0  0  0
   -0.6683    0.2549    0.0000 O   0  0  0  0  0  0  0  0  0  0  0  0
   -0.6683   -1.3951    0.0000 H   0  0  0  0  0  0  0  0  0  0  0  0
    0.0462    2.3174    0.0000 H   0  0  0  0  0  0  0  0  0  0  0  0
   -0.6683    1.0799    0.0000 H   0  0  0  0  0  0  0  0  0  0  0  0
    0.7607   -2.2201    0.0000 H   0  0  0  0  0  0  0  0  0  0  0  0
  1  2  1  0  0  0  0
  2  3  2  0  0  0  0
  2  4  1  0  0  0  0
  4  5  2  0  0  0  0
  4 10  1  0  0  0  0
  5  6  1  0  0  0  0
  6  7  1  0  0  0  0
  6  8  2  0  0  0  0
  8  9  1  0  0  0  0
  9 10  1  0  0  0  0
 10 11  2  0  0  0  0
  9 12  1  0  0  0  0
  1 13  1  0  0  0  0
  1 14  1  0  0  0  0
  8 15  1  0  0  0  0
M  END
> <Molecule ChEMBL ID>
CHEMBL221722

> <Class(50)>
1

> <Class(80)>
1

>  <salt>
false

>  <StandardizerResult>
Tautomerize (ID: Tautomerize)
Neutralize (ID: Neutralize)
Wedge Clean (ID: Wedge Clean)
Clean 2D (ID: Clean2D)

$$$$
CHEMBL1414870
  Mrv2010 08032110442D          

 27 27  0  0  0  0            999 V2000
   -1.5613    3.3906    0.0000 N   0  0  0  0  0  0  0  0  0  0  0  0
   -0.8468    2.9781    0.0000 C   0  0  0  0  0  0  0  0  0  0  0  0
   -0.1323    3.3906    0.0000 N   0  0  0  0  0  0  0  0  0  0  0  0
   -0.8468    2.1531    0.0000 N   0  0  0  0  0  0  0  0  0  0  0  0
   -0.1323    1.7406    0.0000 N   0  0  0  0  0  0  0  0  0  0  0  0
   -0.1323    0.9156    0.0000 C   0  0  0  0  0  0  0  0  0  0  0  0
    0.5822    0.5031    0.0000 C   0  0  0  0  0  0  0  0  0  0  0  0
    0.5822   -0.3219    0.0000 C   0  0  0  0  0  0  0  0  0  0  0  0
   -0.1323   -0.7344    0.0000 C   0  0  0  0  0  0  0  0  0  0  0  0
   -0.1323   -1.5594    0.0000 N   0  0  0  0  0  0  0  0  0  0  0  0
    0.5822   -1.9719    0.0000 N   0  0  0  0  0  0  0  0  0  0  0  0
    0.5822   -2.7969    0.0000 C   0  0  0  0  0  0  0  0  0  0  0  0
    1.2966   -3.2094    0.0000 N   0  0  0  0  0  0  0  0  0  0  0  0
   -0.1323   -3.2094    0.0000 S   0  0  0  0  0  0  0  0  0  0  0  0
   -0.8468   -0.3219    0.0000 C   0  0  0  0  0  0  0  0  0  0  0  0
   -0.8468    0.5031    0.0000 C   0  0  0  0  0  0  0  0  0  0  0  0
   -1.5613   -0.7344    0.0000 H   0  0  0  0  0  0  0  0  0  0  0  0
    1.2966   -4.0344    0.0000 H   0  0  0  0  0  0  0  0  0  0  0  0
    2.0111   -2.7969    0.0000 H   0  0  0  0  0  0  0  0  0  0  0  0
    1.2966   -1.5594    0.0000 H   0  0  0  0  0  0  0  0  0  0  0  0
   -1.5613    0.9156    0.0000 H   0  0  0  0  0  0  0  0  0  0  0  0
   -0.8468   -1.9719    0.0000 H   0  0  0  0  0  0  0  0  0  0  0  0
   -1.5613    4.2156    0.0000 H   0  0  0  0  0  0  0  0  0  0  0  0
    0.5822    2.9781    0.0000 H   0  0  0  0  0  0  0  0  0  0  0  0
   -0.1323    4.2156    0.0000 H   0  0  0  0  0  0  0  0  0  0  0  0
    1.2966    0.9156    0.0000 H   0  0  0  0  0  0  0  0  0  0  0  0
    1.2966   -0.7344    0.0000 H   0  0  0  0  0  0  0  0  0  0  0  0
  1  2  2  0  0  0  0
  2  3  1  0  0  0  0
  2  4  1  0  0  0  0
  4  5  2  0  0  0  0
  5  6  1  0  0  0  0
  6  7  4  0  0  0  0
  6 16  4  0  0  0  0
  7  8  4  0  0  0  0
  8  9  4  0  0  0  0
  9 10  1  0  0  0  0
  9 15  4  0  0  0  0
 10 11  1  0  0  0  0
 11 12  1  0  0  0  0
 12 13  1  0  0  0  0
 12 14  2  0  0  0  0
 15 16  4  0  0  0  0
 15 17  1  0  0  0  0
 13 18  1  0  0  0  0
 13 19  1  0  0  0  0
 11 20  1  0  0  0  0
 16 21  1  0  0  0  0
 10 22  1  0  0  0  0
  1 23  1  4  0  0  0
  3 24  1  0  0  0  0
  3 25  1  0  0  0  0
  7 26  1  0  0  0  0
  8 27  1  0  0  0  0
M  END
> <Molecule ChEMBL ID>
CHEMBL1414870

> <Class(50)>
1

> <Class(80)>
1

>  <salt>
false

>  <StandardizerResult>
Tautomerize (ID: Tautomerize)
Neutralize (ID: Neutralize)
Aromatize (ID: Aromatize)
Wedge Clean (ID: Wedge Clean)
Clean 2D (ID: Clean2D)

$$$$
CHEMBL1449651
  Mrv2010 08032110442D          

 17 17  0  0  0  0            999 V2000
    1.6828    1.3376    0.0000 S   0  0  0  0  0  0  0  0  0  0  0  0
    1.5112    0.5307    0.0000 C   0  0  0  0  0  0  0  0  0  0  0  0
    2.1243   -0.0214    0.0000 S   0  0  0  0  0  0  0  0  0  0  0  0
    0.7266    0.2757    0.0000 N   0  0  0  0  0  0  0  0  0  0  0  0
    0.4717   -0.5089    0.0000 C   0  0  0  0  0  0  0  0  0  0  0  0
   -0.3533   -0.5089    0.0000 C   0  0  0  0  0  0  0  0  0  0  0  0
   -0.6083    0.2757    0.0000 C   0  0  0  0  0  0  0  0  0  0  0  0
    0.0592    0.7607    0.0000 C   0  0  0  0  0  0  0  0  0  0  0  0
   -1.0948   -0.8705    0.0000 H   0  0  0  0  0  0  0  0  0  0  0  0
   -0.4681   -1.3259    0.0000 H   0  0  0  0  0  0  0  0  0  0  0  0
    0.4465    1.4891    0.0000 H   0  0  0  0  0  0  0  0  0  0  0  0
   -0.3281    1.4891    0.0000 H   0  0  0  0  0  0  0  0  0  0  0  0
    0.5865   -1.3259    0.0000 H   0  0  0  0  0  0  0  0  0  0  0  0
    1.2132   -0.8705    0.0000 H   0  0  0  0  0  0  0  0  0  0  0  0
    1.9528   -0.8283    0.0000 H   0  0  0  0  0  0  0  0  0  0  0  0
   -1.1814    0.8692    0.0000 H   0  0  0  0  0  0  0  0  0  0  0  0
   -1.4207    0.1325    0.0000 H   0  0  0  0  0  0  0  0  0  0  0  0
  1  2  2  0  0  0  0
  2  3  1  0  0  0  0
  2  4  1  0  0  0  0
  4  5  1  0  0  0  0
  4  8  1  0  0  0  0
  5  6  1  0  0  0  0
  6  7  1  0  0  0  0
  7  8  1  0  0  0  0
  6  9  1  0  0  0  0
  6 10  1  0  0  0  0
  8 11  1  0  0  0  0
  8 12  1  0  0  0  0
  5 13  1  0  0  0  0
  5 14  1  0  0  0  0
  3 15  1  0  0  0  0
  7 16  1  0  0  0  0
  7 17  1  0  0  0  0
M  END
> <Molecule ChEMBL ID>
CHEMBL1449651

> <Class(50)>
1

> <Class(80)>
1

>  <salt>
true

>  <StandardizerResult>
Tautomerize (ID: Tautomerize)
Neutralize (ID: Neutralize)
Wedge Clean (ID: Wedge Clean)
Clean 2D (ID: Clean2D)

$$$$
CHEMBL4303622
  Mrv2010 08032110442D          

 19 19  0  0  0  0            999 V2000
   -1.5100    2.1726    0.0000 N   0  0  0  0  0  0  0  0  0  0  0  0
   -0.7955    1.7601    0.0000 C   0  0  0  0  0  0  0  0  0  0  0  0
   -0.0810    1.3476    0.0000 S   0  0  0  0  0  0  0  0  0  0  0  0
   -0.0810    0.5226    0.0000 C   0  0  0  0  0  0  0  0  0  0  0  0
    0.6334    0.1101    0.0000 C   0  0  0  0  0  0  0  0  0  0  0  0
    0.6334   -0.7149    0.0000 C   0  0  0  0  0  0  0  0  0  0  0  0
    1.3479   -1.1274    0.0000 S   0  0  0  0  0  0  0  0  0  0  0  0
    2.0624   -0.7149    0.0000 C   0  0  0  0  0  0  0  0  0  0  0  0
    2.7769   -0.3024    0.0000 N   0  0  0  0  0  0  0  0  0  0  0  0
   -0.0810   -1.1274    0.0000 C   0  0  0  0  0  0  0  0  0  0  0  0
   -0.0810   -1.9524    0.0000 N   0  0  0  0  0  0  0  0  0  0  0  0
   -0.7955   -0.7149    0.0000 N   0  0  0  0  0  0  0  0  0  0  0  0
   -0.7955    0.1101    0.0000 C   0  0  0  0  0  0  0  0  0  0  0  0
   -1.5100    0.5226    0.0000 N   0  0  0  0  0  0  0  0  0  0  0  0
    1.3479    0.5226    0.0000 H   0  0  0  0  0  0  0  0  0  0  0  0
   -0.7955   -2.3649    0.0000 H   0  0  0  0  0  0  0  0  0  0  0  0
    0.6334   -2.3649    0.0000 H   0  0  0  0  0  0  0  0  0  0  0  0
   -1.5100    1.3476    0.0000 H   0  0  0  0  0  0  0  0  0  0  0  0
   -2.2244    0.1101    0.0000 H   0  0  0  0  0  0  0  0  0  0  0  0
  1  2  3  0  0  0  0
  2  3  1  0  0  0  0
  3  4  1  0  0  0  0
  4  5  4  0  0  0  0
  4 13  4  0  0  0  0
  5  6  4  0  0  0  0
  6  7  1  0  0  0  0
  6 10  4  0  0  0  0
  7  8  1  0  0  0  0
  8  9  3  0  0  0  0
 10 11  1  0  0  0  0
 10 12  4  0  0  0  0
 12 13  4  0  0  0  0
 13 14  1  0  0  0  0
  5 15  1  0  0  0  0
 11 16  1  0  0  0  0
 11 17  1  0  0  0  0
 14 18  1  0  0  0  0
 14 19  1  0  0  0  0
M  END
> <Molecule ChEMBL ID>
CHEMBL4303622

> <Class(50)>
1

> <Class(80)>
1

>  <salt>
false

>  <StandardizerResult>
Tautomerize (ID: Tautomerize)
Neutralize (ID: Neutralize)
Aromatize (ID: Aromatize)
Wedge Clean (ID: Wedge Clean)
Clean 2D (ID: Clean2D)

$$$$
CHEMBL1200930
  Mrv2010 08032110442D          

 46 48  0  0  1  0            999 V2000
   -5.0142   -3.5862    0.0000 C   0  0  0  0  0  0  0  0  0  0  0  0
   -4.2998   -3.9987    0.0000 O   0  0  0  0  0  0  0  0  0  0  0  0
   -3.5853   -3.5862    0.0000 C   0  0  0  0  0  0  0  0  0  0  0  0
   -2.8708   -3.9987    0.0000 C   0  0  0  0  0  0  0  0  0  0  0  0
   -2.1564   -3.5862    0.0000 C   0  0  0  0  0  0  0  0  0  0  0  0
   -1.4419   -3.9987    0.0000 O   0  0  0  0  0  0  0  0  0  0  0  0
   -0.7274   -3.5862    0.0000 C   0  0  0  0  0  0  0  0  0  0  0  0
   -0.7274   -2.7612    0.0000 C   0  0  0  0  0  0  0  0  0  0  0  0
   -0.0129   -2.3487    0.0000 C   0  0  0  0  0  0  0  0  0  0  0  0
    0.7015   -2.7612    0.0000 N   0  0  0  0  0  0  0  0  0  0  0  0
    0.7015   -3.5862    0.0000 C   0  0  0  0  0  0  0  0  0  0  0  0
    1.4160   -3.9987    0.0000 C   0  0  0  0  0  0  0  0  0  0  0  0
    2.1305   -3.5862    0.0000 S   0  0  0  0  0  0  0  0  0  0  0  0
    2.1305   -2.7612    0.0000 O   0  0  0  0  0  0  0  0  0  0  0  0
    2.8449   -3.9987    0.0000 C   0  0  0  0  0  0  0  0  0  0  0  0
    3.5986   -3.6631    0.0000 N   0  0  0  0  0  0  0  0  0  0  0  0
    4.1506   -4.2762    0.0000 C   0  0  0  0  0  0  0  0  0  0  0  0
    4.9756   -4.2762    0.0000 C   0  0  0  0  0  0  0  0  0  0  0  0
    5.3881   -4.9907    0.0000 C   0  0  0  0  0  0  0  0  0  0  0  0
    4.9756   -5.7052    0.0000 C   0  0  0  0  0  0  0  0  0  0  0  0
    4.1506   -5.7052    0.0000 C   0  0  0  0  0  0  0  0  0  0  0  0
    3.7381   -4.9907    0.0000 C   0  0  0  0  0  0  0  0  0  0  0  0
    2.9312   -4.8192    0.0000 N   0  0  0  0  0  0  0  0  0  0  0  0
   -0.0129   -3.9987    0.0000 C   0  0  0  0  0  0  0  0  0  0  0  0
   -0.0129   -4.8237    0.0000 C   0  0  0  0  0  0  0  0  0  0  0  0
   -4.6017   -2.8717    0.0000 H   0  0  0  0  0  0  0  0  0  0  0  0
   -5.7287   -3.1737    0.0000 H   0  0  0  0  0  0  0  0  0  0  0  0
   -5.4267   -4.3007    0.0000 H   0  0  0  0  0  0  0  0  0  0  0  0
   -3.2150   -2.8489    0.0000 H   0  0  0  0  0  0  0  0  0  0  0  0
   -3.9556   -2.8489    0.0000 H   0  0  0  0  0  0  0  0  0  0  0  0
   -3.2411   -4.7359    0.0000 H   0  0  0  0  0  0  0  0  0  0  0  0
   -2.5006   -4.7359    0.0000 H   0  0  0  0  0  0  0  0  0  0  0  0
   -1.7861   -2.8489    0.0000 H   0  0  0  0  0  0  0  0  0  0  0  0
   -2.5266   -2.8489    0.0000 H   0  0  0  0  0  0  0  0  0  0  0  0
   -1.4419   -2.3487    0.0000 H   0  0  0  0  0  0  0  0  0  0  0  0
   -0.0129   -1.5237    0.0000 H   0  0  0  0  0  0  0  0  0  0  0  0
    1.0457   -4.7359    0.0000 H   0  0  0  0  0  0  0  0  0  0  0  0
    1.7863   -4.7359    0.0000 H   0  0  0  0  0  0  0  0  0  0  0  0
    5.3881   -3.5618    0.0000 H   0  0  0  0  0  0  0  0  0  0  0  0
    6.2131   -4.9907    0.0000 H   0  0  0  0  0  0  0  0  0  0  0  0
    5.3881   -6.4196    0.0000 H   0  0  0  0  0  0  0  0  0  0  0  0
    3.7381   -6.4196    0.0000 H   0  0  0  0  0  0  0  0  0  0  0  0
   -0.8379   -4.8237    0.0000 H   0  0  0  0  0  0  0  0  0  0  0  0
   -0.0129   -5.6487    0.0000 H   0  0  0  0  0  0  0  0  0  0  0  0
    0.8121   -4.8237    0.0000 H   0  0  0  0  0  0  0  0  0  0  0  0
    2.3181   -5.3712    0.0000 H   0  0  0  0  0  0  0  0  0  0  0  0
  1  2  1  0  0  0  0
  1 26  1  0  0  0  0
  1 27  1  0  0  0  0
  1 28  1  0  0  0  0
  2  3  1  0  0  0  0
  3  4  1  0  0  0  0
  3 29  1  0  0  0  0
  3 30  1  0  0  0  0
  4  5  1  0  0  0  0
  4 31  1  0  0  0  0
  4 32  1  0  0  0  0
  5  6  1  0  0  0  0
  5 33  1  0  0  0  0
  5 34  1  0  0  0  0
  6  7  1  0  0  0  0
  7  8  4  0  0  0  0
  7 24  4  0  0  0  0
  8  9  4  0  0  0  0
  8 35  1  0  0  0  0
  9 10  4  0  0  0  0
  9 36  1  0  0  0  0
 10 11  4  0  0  0  0
 11 12  1  0  0  0  0
 11 24  4  0  0  0  0
 12 13  1  0  0  0  0
 12 37  1  0  0  0  0
 12 38  1  0  0  0  0
 13 14  2  0  0  0  0
 13 15  1  0  0  0  0
 15 16  4  0  0  0  0
 15 23  4  0  0  0  0
 16 17  4  0  0  0  0
 17 18  4  0  0  0  0
 17 22  4  0  0  0  0
 18 19  4  0  0  0  0
 18 39  1  0  0  0  0
 19 20  4  0  0  0  0
 19 40  1  0  0  0  0
 20 21  4  0  0  0  0
 20 41  1  0  0  0  0
 21 22  4  0  0  0  0
 21 42  1  0  0  0  0
 22 23  4  0  0  0  0
 24 25  1  0  0  0  0
 25 43  1  0  0  0  0
 25 44  1  0  0  0  0
 25 45  1  0  0  0  0
 23 46  1  0  0  0  0
M  END
> <Molecule ChEMBL ID>
CHEMBL1200930

> <Class(50)>
1

> <Class(80)>
1

>  <salt>
true

>  <StandardizerResult>
Neutralize (ID: Neutralize)
Aromatize (ID: Aromatize)
Add Explicit Hydrogens (ID: AddExplicitH)
Wedge Clean (ID: Wedge Clean)
Clean 2D (ID: Clean2D)

$$$$
CHEMBL2107818
  Mrv2010 08032110442D          

 96101  0  0  1  0            999 V2000
   -3.1257   10.7530    0.0000 C   0  0  0  0  0  0  0  0  0  0  0  0
   -2.5954   10.1210    0.0000 O   0  0  0  0  0  0  0  0  0  0  0  0
   -1.7829   10.2642    0.0000 C   0  0  0  0  0  0  0  0  0  0  0  0
   -1.5008   11.0395    0.0000 C   0  0  0  0  0  0  0  0  0  0  0  0
   -0.6883   11.1827    0.0000 C   0  0  0  0  0  0  0  0  0  0  0  0
   -0.1580   10.5508    0.0000 C   0  0  0  0  0  0  0  0  0  0  0  0
   -0.4402    9.7755    0.0000 C   0  0  0  0  0  0  0  0  0  0  0  0
   -1.2526    9.6323    0.0000 C   0  0  0  0  0  0  0  0  0  0  0  0
   -1.5348    8.8570    0.0000 C   0  0  0  0  0  0  0  0  0  0  0  0
   -2.3473    8.7137    0.0000 O   0  0  0  0  0  0  0  0  0  0  0  0
   -1.0045    8.2250    0.0000 C   0  0  0  0  0  0  0  0  0  0  0  0
   -1.2867    7.4498    0.0000 C   0  0  0  0  0  0  0  0  0  0  0  0
   -2.0991    7.3065    0.0000 O   0  0  0  0  0  0  0  0  0  0  0  0
   -0.7564    6.8178    0.0000 C   0  0  0  0  0  0  0  0  0  0  0  0
    0.0561    6.9610    0.0000 C   0  0  0  0  0  0  0  0  0  0  0  0
    0.3383    7.7363    0.0000 C   0  0  0  0  0  0  0  0  0  0  0  0
    1.1507    7.8796    0.0000 O   0  0  0  0  0  0  0  0  0  0  0  0
   -0.1920    8.3683    0.0000 C   0  0  0  0  0  0  0  0  0  0  0  0
    0.0901    9.1435    0.0000 C   0  0  0  0  0  0  0  0  0  0  0  0
    0.9026    9.2868    0.0000 O   0  0  0  0  0  0  0  0  0  0  0  0
    0.5864    6.3291    0.0000 C   0  0  0  0  0  0  0  0  0  0  0  0
    0.3042    5.5538    0.0000 C   0  0  0  0  0  0  0  0  0  0  0  0
    1.1167    5.4106    0.0000 O   0  0  0  0  0  0  0  0  0  0  0  0
    0.3042    4.7288    0.0000 C   0  0  0  0  0  0  0  0  0  0  0  0
   -0.4102    4.3163    0.0000 N   0  0  0  0  0  0  0  0  0  0  0  0
   -0.4102    3.4913    0.0000 N   0  0  0  0  0  0  0  0  0  0  0  0
    0.3042    3.0788    0.0000 C   0  0  0  0  0  0  0  0  0  0  0  0
    0.3042    2.2538    0.0000 O   0  0  0  0  0  0  0  0  0  0  0  0
    1.0187    3.4913    0.0000 C   0  0  0  0  0  0  0  0  0  0  0  0
    1.7332    3.0788    0.0000 C   0  0  0  0  0  0  0  0  0  0  0  0
    2.4476    3.4913    0.0000 C   0  0  0  0  0  0  0  0  0  0  0  0
    3.1621    3.0788    0.0000 C   0  0  0  0  0  0  0  0  0  0  0  0
    3.8766    3.4913    0.0000 C   0  0  0  0  0  0  0  0  0  0  0  0
    4.5911    3.0788    0.0000 N   0  0  0  0  0  0  0  0  0  0  0  0
    5.3447    3.4144    0.0000 C   0  0  0  0  0  0  0  0  0  0  0  0
    5.5163    4.2213    0.0000 O   0  0  0  0  0  0  0  0  0  0  0  0
    5.8968    2.8013    0.0000 C   0  0  0  0  0  0  0  0  0  0  0  0
    5.4843    2.0868    0.0000 C   0  0  0  0  0  0  0  0  0  0  0  0
    4.6773    2.2583    0.0000 C   0  0  0  0  0  0  0  0  0  0  0  0
    4.0642    1.7063    0.0000 O   0  0  0  0  0  0  0  0  0  0  0  0
    1.0187    4.3163    0.0000 C   0  0  0  0  0  0  0  0  0  0  0  0
    1.7332    4.7288    0.0000 O   0  0  0  0  0  0  0  0  0  0  0  0
   -0.5082    5.4106    0.0000 C   0  0  0  0  0  0  0  0  0  0  0  0
   -1.0385    6.0425    0.0000 C   0  0  1  0  0  0  0  0  0  0  0  0
   -1.8510    5.8993    0.0000 O   0  0  0  0  0  0  0  0  0  0  0  0
   -2.1332    5.1240    0.0000 C   0  0  1  0  0  0  0  0  0  0  0  0
   -1.6029    4.4920    0.0000 C   0  0  0  0  0  0  0  0  0  0  0  0
   -1.8850    3.7168    0.0000 C   0  0  1  0  0  0  0  0  0  0  0  0
   -1.3547    3.0848    0.0000 N   0  0  0  0  0  0  0  0  0  0  0  0
   -2.6975    3.5735    0.0000 C   0  0  1  0  0  0  0  0  0  0  0  0
   -2.9797    2.7983    0.0000 O   0  0  0  0  0  0  0  0  0  0  0  0
   -3.2278    4.2055    0.0000 C   0  0  1  0  0  0  0  0  0  0  0  0
   -4.0403    4.0623    0.0000 C   0  0  0  0  0  0  0  0  0  0  0  0
   -2.9456    4.9808    0.0000 O   0  0  0  0  0  0  0  0  0  0  0  0
    1.8764    2.2663    0.0000 H   0  0  0  0  0  0  0  0  0  0  0  0
    2.3652    2.5485    0.0000 H   0  0  0  0  0  0  0  0  0  0  0  0
    1.6810    7.2476    0.0000 H   0  0  0  0  0  0  0  0  0  0  0  0
    2.8179    4.2286    0.0000 H   0  0  0  0  0  0  0  0  0  0  0  0
    2.0774    4.2286    0.0000 H   0  0  0  0  0  0  0  0  0  0  0  0
    0.3042    3.9038    0.0000 H   0  0  0  0  0  0  0  0  0  0  0  0
    1.0187    2.6663    0.0000 H   0  0  0  0  0  0  0  0  0  0  0  0
   -2.6635    5.7560    0.0000 H   0  0  0  0  0  0  0  0  0  0  0  0
    4.2468    4.2286    0.0000 H   0  0  0  0  0  0  0  0  0  0  0  0
    3.5063    4.2286    0.0000 H   0  0  0  0  0  0  0  0  0  0  0  0
   -1.1083    4.8444    0.0000 H   0  0  0  0  0  0  0  0  0  0  0  0
   -0.4125    4.5911    0.0000 H   0  0  0  0  0  0  0  0  0  0  0  0
   -1.5688    6.6745    0.0000 H   0  0  0  0  0  0  0  0  0  0  0  0
    1.7332    3.9038    0.0000 H   0  0  0  0  0  0  0  0  0  0  0  0
    1.1692    5.1275    0.0000 H   0  0  0  0  0  0  0  0  0  0  0  0
   -2.0311   11.6715    0.0000 H   0  0  0  0  0  0  0  0  0  0  0  0
   -0.4061   11.9580    0.0000 H   0  0  0  0  0  0  0  0  0  0  0  0
   -2.4937   11.2833    0.0000 H   0  0  0  0  0  0  0  0  0  0  0  0
   -3.6560   11.3850    0.0000 H   0  0  0  0  0  0  0  0  0  0  0  0
   -3.7577   10.2227    0.0000 H   0  0  0  0  0  0  0  0  0  0  0  0
   -3.7581    4.8375    0.0000 H   0  0  0  0  0  0  0  0  0  0  0  0
    1.3767    6.0924    0.0000 H   0  0  0  0  0  0  0  0  0  0  0  0
    1.2481    6.8217    0.0000 H   0  0  0  0  0  0  0  0  0  0  0  0
    0.7175    4.6886    0.0000 H   0  0  0  0  0  0  0  0  0  0  0  0
   -3.2618    2.0230    0.0000 H   0  0  0  0  0  0  0  0  0  0  0  0
   -4.5706    4.6943    0.0000 H   0  0  0  0  0  0  0  0  0  0  0  0
   -4.8527    3.9190    0.0000 H   0  0  0  0  0  0  0  0  0  0  0  0
   -4.3224    3.2870    0.0000 H   0  0  0  0  0  0  0  0  0  0  0  0
    0.6545   10.6940    0.0000 H   0  0  0  0  0  0  0  0  0  0  0  0
   -3.5100    3.4303    0.0000 H   0  0  0  0  0  0  0  0  0  0  0  0
   -1.2936    2.2621    0.0000 H   0  0  0  0  0  0  0  0  0  0  0  0
   -0.9964    3.8279    0.0000 H   0  0  0  0  0  0  0  0  0  0  0  0
    5.8198    1.3331    0.0000 H   0  0  0  0  0  0  0  0  0  0  0  0
    2.3804    5.2404    0.0000 H   0  0  0  0  0  0  0  0  0  0  0  0
   -1.1247    3.0788    0.0000 H   0  0  0  0  0  0  0  0  0  0  0  0
    6.7172    2.8875    0.0000 H   0  0  0  0  0  0  0  0  0  0  0  0
   -0.9463    3.9925    0.0000 H   0  0  0  0  0  0  0  0  0  0  0  0
   -2.4153    4.3488    0.0000 H   0  0  0  0  0  0  0  0  0  0  0  0
   -2.1672    2.9416    0.0000 H   0  0  0  0  0  0  0  0  0  0  0  0
   -2.6294    7.9385    0.0000 H   0  0  0  0  0  0  0  0  0  0  0  0
    3.1970    2.2546    0.0000 H   0  0  0  0  0  0  0  0  0  0  0  0
    3.8852    2.6815    0.0000 H   0  0  0  0  0  0  0  0  0  0  0  0
  1  2  1  0  0  0  0
  2  3  1  0  0  0  0
  3  4  4  0  0  0  0
  3  8  4  0  0  0  0
  4  5  4  0  0  0  0
  5  6  4  0  0  0  0
  6  7  4  0  0  0  0
  7  8  4  0  0  0  0
  7 19  1  0  0  0  0
  8  9  1  0  0  0  0
  9 10  2  0  0  0  0
  9 11  1  0  0  0  0
 11 12  4  0  0  0  0
 11 18  4  0  0  0  0
 12 13  1  0  0  0  0
 12 14  4  0  0  0  0
 14 15  4  0  0  0  0
 44 14  1  0  0  0  0
 15 16  4  0  0  0  0
 15 21  1  0  0  0  0
 16 17  1  0  0  0  0
 16 18  4  0  0  0  0
 18 19  1  0  0  0  0
 19 20  2  0  0  0  0
 21 22  1  0  0  0  0
 22 23  1  0  0  0  0
 22 24  1  0  0  0  0
 22 43  1  0  0  0  0
 24 25  2  0  0  0  0
 24 41  1  0  0  0  0
 25 26  1  0  0  0  0
 26 27  1  0  0  0  0
 27 28  2  0  0  0  0
 27 29  1  0  0  0  0
 29 30  1  0  0  0  0
 30 31  1  0  0  0  0
 31 32  1  0  0  0  0
 32 33  1  0  0  0  0
 33 34  1  0  0  0  0
 34 35  1  0  0  0  0
 34 39  1  0  0  0  0
 35 36  2  0  0  0  0
 35 37  1  0  0  0  0
 37 38  2  0  0  0  0
 38 39  1  0  0  0  0
 39 40  2  0  0  0  0
 41 42  1  0  0  0  0
 44 43  1  0  0  0  0
 44 45  1  0  0  0  0
 46 45  1  0  0  0  0
 46 47  1  0  0  0  0
 46 54  1  0  0  0  0
 48 47  1  0  0  0  0
 48 49  1  0  0  0  0
 50 48  1  0  0  0  0
 50 51  1  0  0  0  0
 50 52  1  0  0  0  0
 52 53  1  0  0  0  0
 52 54  1  0  0  0  0
 30 55  1  0  0  0  0
 30 56  1  0  0  0  0
 17 57  1  0  0  0  0
 31 58  1  0  0  0  0
 31 59  1  0  0  0  0
 29 60  1  0  0  0  0
 29 61  1  0  0  0  0
 46 62  1  6  0  0  0
 33 63  1  0  0  0  0
 33 64  1  0  0  0  0
 43 65  1  0  0  0  0
 43 66  1  0  0  0  0
 44 67  1  6  0  0  0
 41 68  1  0  0  0  0
 41 69  1  0  0  0  0
  4 70  1  0  0  0  0
  5 71  1  0  0  0  0
  1 72  1  0  0  0  0
  1 73  1  0  0  0  0
  1 74  1  0  0  0  0
 52 75  1  6  0  0  0
 21 76  1  0  0  0  0
 21 77  1  0  0  0  0
 23 78  1  0  0  0  0
 51 79  1  0  0  0  0
 53 80  1  0  0  0  0
 53 81  1  0  0  0  0
 53 82  1  0  0  0  0
  6 83  1  0  0  0  0
 50 84  1  6  0  0  0
 49 85  1  0  0  0  0
 49 86  1  0  0  0  0
 38 87  1  0  0  0  0
 42 88  1  0  0  0  0
 26 89  1  0  0  0  0
 37 90  1  0  0  0  0
 47 91  1  0  0  0  0
 47 92  1  0  0  0  0
 48 93  1  6  0  0  0
 13 94  1  0  0  0  0
 32 95  1  0  0  0  0
 32 96  1  0  0  0  0
M  END
> <Molecule ChEMBL ID>
CHEMBL2107818

> <Class(50)>
1

> <Class(80)>
1

>  <salt>
false

>  <StandardizerResult>
Tautomerize (ID: Tautomerize)
Transform (ID: Transform NO2 (1))
Aromatize (ID: Aromatize)
Wedge Clean (ID: Wedge Clean)
Clean 2D (ID: Clean2D)

$$$$
CHEMBL2354521
  Mrv2010 08032110442D          

 46 47  0  0  1  0            999 V2000
   -5.7665    2.9746    0.0000 C   0  0  0  0  0  0  0  0  0  0  0  0
   -5.0520    2.5621    0.0000 O   0  0  0  0  0  0  0  0  0  0  0  0
   -4.3375    2.9746    0.0000 C   0  0  0  0  0  0  0  0  0  0  0  0
   -4.3375    3.7996    0.0000 C   0  0  0  0  0  0  0  0  0  0  0  0
   -3.6231    4.2121    0.0000 C   0  0  0  0  0  0  0  0  0  0  0  0
   -2.9086    3.7996    0.0000 C   0  0  0  0  0  0  0  0  0  0  0  0
   -2.9086    2.9746    0.0000 C   0  0  0  0  0  0  0  0  0  0  0  0
   -2.1941    2.5621    0.0000 C   0  0  0  0  0  0  0  0  0  0  0  0
   -2.1941    1.7371    0.0000 O   0  0  0  0  0  0  0  0  0  0  0  0
   -1.4797    2.9746    0.0000 C   0  0  0  0  0  0  0  0  0  0  0  0
   -0.7652    2.5621    0.0000 C   0  0  0  0  0  0  0  0  0  0  0  0
   -0.0507    2.9746    0.0000 N   0  0  0  0  0  0  0  0  0  0  0  0
    0.6638    2.5621    0.0000 C   0  0  1  0  0  0  0  0  0  0  0  0
    0.6638    1.7371    0.0000 C   0  0  0  0  0  0  0  0  0  0  0  0
    1.3782    2.9746    0.0000 C   0  0  1  0  0  0  0  0  0  0  0  0
    1.3782    3.7996    0.0000 O   0  0  0  0  0  0  0  0  0  0  0  0
    2.0927    2.5621    0.0000 C   0  0  0  0  0  0  0  0  0  0  0  0
    2.8072    2.9746    0.0000 C   0  0  0  0  0  0  0  0  0  0  0  0
    3.5216    2.5621    0.0000 C   0  0  0  0  0  0  0  0  0  0  0  0
    3.5216    1.7371    0.0000 C   0  0  0  0  0  0  0  0  0  0  0  0
    2.8072    1.3246    0.0000 C   0  0  0  0  0  0  0  0  0  0  0  0
    2.0927    1.7371    0.0000 C   0  0  0  0  0  0  0  0  0  0  0  0
   -3.6231    2.5621    0.0000 C   0  0  0  0  0  0  0  0  0  0  0  0
   -0.0507    3.7996    0.0000 H   0  0  0  0  0  0  0  0  0  0  0  0
   -5.0520    4.2121    0.0000 H   0  0  0  0  0  0  0  0  0  0  0  0
    4.2361    1.3246    0.0000 H   0  0  0  0  0  0  0  0  0  0  0  0
    1.7528    0.9853    0.0000 H   0  0  0  0  0  0  0  0  0  0  0  0
   -5.3540    3.6890    0.0000 H   0  0  0  0  0  0  0  0  0  0  0  0
   -6.4810    3.3871    0.0000 H   0  0  0  0  0  0  0  0  0  0  0  0
   -6.1790    2.2601    0.0000 H   0  0  0  0  0  0  0  0  0  0  0  0
    2.8072    0.4996    0.0000 H   0  0  0  0  0  0  0  0  0  0  0  0
    0.6638    3.3871    0.0000 H   0  0  0  0  0  0  0  0  0  0  0  0
    2.8072    3.7996    0.0000 H   0  0  0  0  0  0  0  0  0  0  0  0
   -0.0507    2.1496    0.0000 H   0  0  0  0  0  0  0  0  0  0  0  0
    0.0804    1.1537    0.0000 H   0  0  0  0  0  0  0  0  0  0  0  0
    1.0763    1.0226    0.0000 H   0  0  0  0  0  0  0  0  0  0  0  0
    1.4606    1.9506    0.0000 H   0  0  0  0  0  0  0  0  0  0  0  0
    1.7907    4.5140    0.0000 H   0  0  0  0  0  0  0  0  0  0  0  0
    4.2361    2.9746    0.0000 H   0  0  0  0  0  0  0  0  0  0  0  0
   -1.1354    1.8248    0.0000 H   0  0  0  0  0  0  0  0  0  0  0  0
   -0.3949    1.8248    0.0000 H   0  0  0  0  0  0  0  0  0  0  0  0
   -1.1094    3.7118    0.0000 H   0  0  0  0  0  0  0  0  0  0  0  0
   -1.8499    3.7118    0.0000 H   0  0  0  0  0  0  0  0  0  0  0  0
   -3.6231    5.0371    0.0000 H   0  0  0  0  0  0  0  0  0  0  0  0
   -2.1941    4.2121    0.0000 H   0  0  0  0  0  0  0  0  0  0  0  0
   -3.6231    1.7371    0.0000 H   0  0  0  0  0  0  0  0  0  0  0  0
  1  2  1  0  0  0  0
  2  3  1  0  0  0  0
  3  4  4  0  0  0  0
  3 23  4  0  0  0  0
  4  5  4  0  0  0  0
  5  6  4  0  0  0  0
  6  7  4  0  0  0  0
  7  8  1  0  0  0  0
  7 23  4  0  0  0  0
  8  9  2  0  0  0  0
  8 10  1  0  0  0  0
 10 11  1  0  0  0  0
 11 12  1  0  0  0  0
 13 12  1  0  0  0  0
 13 14  1  0  0  0  0
 13 15  1  0  0  0  0
 15 16  1  0  0  0  0
 15 17  1  0  0  0  0
 17 18  4  0  0  0  0
 17 22  4  0  0  0  0
 18 19  4  0  0  0  0
 19 20  4  0  0  0  0
 20 21  4  0  0  0  0
 21 22  4  0  0  0  0
 12 24  1  0  0  0  0
  4 25  1  0  0  0  0
 20 26  1  0  0  0  0
 22 27  1  0  0  0  0
  1 28  1  0  0  0  0
  1 29  1  0  0  0  0
  1 30  1  0  0  0  0
 21 31  1  0  0  0  0
 15 32  1  6  0  0  0
 18 33  1  0  0  0  0
 13 34  1  1  0  0  0
 14 35  1  0  0  0  0
 14 36  1  0  0  0  0
 14 37  1  0  0  0  0
 16 38  1  0  0  0  0
 19 39  1  0  0  0  0
 11 40  1  0  0  0  0
 11 41  1  0  0  0  0
 10 42  1  0  0  0  0
 10 43  1  0  0  0  0
  5 44  1  0  0  0  0
  6 45  1  0  0  0  0
 23 46  1  0  0  0  0
M  END
> <Molecule ChEMBL ID>
CHEMBL2354521

> <Class(50)>
1

> <Class(80)>
1

>  <salt>
true

>  <StandardizerResult>
Tautomerize (ID: Tautomerize)
Transform (ID: Transform NO2 (1))
Aromatize (ID: Aromatize)
Wedge Clean (ID: Wedge Clean)
Clean 2D (ID: Clean2D)

$$$$
CHEMBL1509639
  Mrv2010 08032110442D          

 20 21  0  0  0  0            999 V2000
    2.1630    0.3972    0.0000 C   0  0  0  0  0  0  0  0  0  0  0  0
    1.4485    0.8097    0.0000 O   0  0  0  0  0  0  0  0  0  0  0  0
    0.7340    0.3972    0.0000 C   0  0  0  0  0  0  0  0  0  0  0  0
    0.7340   -0.4278    0.0000 C   0  0  0  0  0  0  0  0  0  0  0  0
    0.0195   -0.8403    0.0000 C   0  0  0  0  0  0  0  0  0  0  0  0
   -0.6949   -0.4278    0.0000 C   0  0  0  0  0  0  0  0  0  0  0  0
   -1.4795   -0.6827    0.0000 N   0  0  0  0  0  0  0  0  0  0  0  0
   -1.9645   -0.0153    0.0000 C   0  0  0  0  0  0  0  0  0  0  0  0
   -2.7895   -0.0153    0.0000 S   0  0  0  0  0  0  0  0  0  0  0  0
   -1.4795    0.6521    0.0000 N   0  0  0  0  0  0  0  0  0  0  0  0
   -0.6949    0.3972    0.0000 C   0  0  0  0  0  0  0  0  0  0  0  0
    0.0195    0.8097    0.0000 C   0  0  0  0  0  0  0  0  0  0  0  0
    0.0195    1.6347    0.0000 H   0  0  0  0  0  0  0  0  0  0  0  0
    1.4485   -0.8403    0.0000 H   0  0  0  0  0  0  0  0  0  0  0  0
    0.0195   -1.6653    0.0000 H   0  0  0  0  0  0  0  0  0  0  0  0
   -1.7345    1.4368    0.0000 H   0  0  0  0  0  0  0  0  0  0  0  0
   -1.7345   -1.4674    0.0000 H   0  0  0  0  0  0  0  0  0  0  0  0
    1.7505   -0.3173    0.0000 H   0  0  0  0  0  0  0  0  0  0  0  0
    2.8774   -0.0153    0.0000 H   0  0  0  0  0  0  0  0  0  0  0  0
    2.5755    1.1117    0.0000 H   0  0  0  0  0  0  0  0  0  0  0  0
  1  2  1  0  0  0  0
  2  3  1  0  0  0  0
  3  4  4  0  0  0  0
  3 12  4  0  0  0  0
  4  5  4  0  0  0  0
  5  6  4  0  0  0  0
  6  7  1  0  0  0  0
  6 11  4  0  0  0  0
  7  8  1  0  0  0  0
  8  9  2  0  0  0  0
  8 10  1  0  0  0  0
 10 11  1  0  0  0  0
 11 12  4  0  0  0  0
 12 13  1  0  0  0  0
  4 14  1  0  0  0  0
  5 15  1  0  0  0  0
 10 16  1  0  0  0  0
  7 17  1  0  0  0  0
  1 18  1  0  0  0  0
  1 19  1  0  0  0  0
  1 20  1  0  0  0  0
M  END
> <Molecule ChEMBL ID>
CHEMBL1509639

> <Class(50)>
1

> <Class(80)>
1

>  <salt>
false

>  <StandardizerResult>
Tautomerize (ID: Tautomerize)
Neutralize (ID: Neutralize)
Aromatize (ID: Aromatize)
Wedge Clean (ID: Wedge Clean)
Clean 2D (ID: Clean2D)

$$$$
CHEMBL1503
  Mrv2010 08032110442D          

 43 45  0  0  1  0            999 V2000
    2.5735    1.7391    0.0000 C   0  0  0  0  0  0  0  0  0  0  0  0
    1.8591    2.1516    0.0000 O   0  0  0  0  0  0  0  0  0  0  0  0
    1.1446    1.7391    0.0000 C   0  0  0  0  0  0  0  0  0  0  0  0
    1.1446    0.9141    0.0000 C   0  0  0  0  0  0  0  0  0  0  0  0
    0.4301    0.5016    0.0000 C   0  0  0  0  0  0  0  0  0  0  0  0
   -0.2843    0.9141    0.0000 C   0  0  0  0  0  0  0  0  0  0  0  0
   -1.0690    0.6592    0.0000 N   0  0  0  0  0  0  0  0  0  0  0  0
   -1.5539    1.3266    0.0000 C   0  0  0  0  0  0  0  0  0  0  0  0
   -2.3789    1.3266    0.0000 S   0  0  0  0  0  0  0  0  0  0  0  0
   -2.7914    2.0411    0.0000 O   0  0  0  0  0  0  0  0  0  0  0  0
   -2.7914    0.6121    0.0000 C   0  0  0  0  0  0  0  0  0  0  0  0
   -3.6164    0.6121    0.0000 C   0  0  0  0  0  0  0  0  0  0  0  0
   -4.0289   -0.1023    0.0000 N   0  0  0  0  0  0  0  0  0  0  0  0
   -4.8539   -0.1023    0.0000 C   0  0  0  0  0  0  0  0  0  0  0  0
   -5.2664    0.6121    0.0000 C   0  0  0  0  0  0  0  0  0  0  0  0
   -6.0914    0.6121    0.0000 C   0  0  0  0  0  0  0  0  0  0  0  0
   -4.8539    1.3266    0.0000 C   0  0  0  0  0  0  0  0  0  0  0  0
   -5.2664    2.0411    0.0000 O   0  0  0  0  0  0  0  0  0  0  0  0
   -4.8539    2.7556    0.0000 C   0  0  0  0  0  0  0  0  0  0  0  0
   -4.0289    1.3266    0.0000 C   0  0  0  0  0  0  0  0  0  0  0  0
   -3.6164    2.0411    0.0000 C   0  0  0  0  0  0  0  0  0  0  0  0
   -1.0690    1.9941    0.0000 N   0  0  0  0  0  0  0  0  0  0  0  0
   -0.2843    1.7391    0.0000 C   0  0  0  0  0  0  0  0  0  0  0  0
    0.4301    2.1516    0.0000 C   0  0  0  0  0  0  0  0  0  0  0  0
    0.4301   -0.3234    0.0000 H   0  0  0  0  0  0  0  0  0  0  0  0
    2.1610    1.0246    0.0000 H   0  0  0  0  0  0  0  0  0  0  0  0
    3.2880    1.3266    0.0000 H   0  0  0  0  0  0  0  0  0  0  0  0
    2.9860    2.4536    0.0000 H   0  0  0  0  0  0  0  0  0  0  0  0
   -3.0861    2.6731    0.0000 H   0  0  0  0  0  0  0  0  0  0  0  0
   -3.7596    2.8536    0.0000 H   0  0  0  0  0  0  0  0  0  0  0  0
   -3.2039    1.3266    0.0000 H   0  0  0  0  0  0  0  0  0  0  0  0
   -4.1394    2.3431    0.0000 H   0  0  0  0  0  0  0  0  0  0  0  0
   -4.4414    3.4700    0.0000 H   0  0  0  0  0  0  0  0  0  0  0  0
   -5.5684    3.1681    0.0000 H   0  0  0  0  0  0  0  0  0  0  0  0
   -5.2664   -0.8168    0.0000 H   0  0  0  0  0  0  0  0  0  0  0  0
   -6.0914    1.4371    0.0000 H   0  0  0  0  0  0  0  0  0  0  0  0
   -6.9164    0.6121    0.0000 H   0  0  0  0  0  0  0  0  0  0  0  0
   -6.0914   -0.2129    0.0000 H   0  0  0  0  0  0  0  0  0  0  0  0
   -1.3239    2.7787    0.0000 H   0  0  0  0  0  0  0  0  0  0  0  0
    1.8591    0.5016    0.0000 H   0  0  0  0  0  0  0  0  0  0  0  0
   -2.7434   -0.2115    0.0000 H   0  0  0  0  0  0  0  0  0  0  0  0
   -2.1021    0.1588    0.0000 H   0  0  0  0  0  0  0  0  0  0  0  0
    0.4301    2.9766    0.0000 H   0  0  0  0  0  0  0  0  0  0  0  0
  1  2  1  0  0  0  0
  2  3  1  0  0  0  0
  3  4  4  0  0  0  0
  3 24  4  0  0  0  0
  4  5  4  0  0  0  0
  5  6  4  0  0  0  0
  6  7  4  0  0  0  0
  6 23  4  0  0  0  0
  7  8  4  0  0  0  0
  8  9  1  0  0  0  0
  8 22  4  0  0  0  0
  9 10  2  0  0  0  0
  9 11  1  0  0  0  0
 11 12  1  0  0  0  0
 12 13  4  0  0  0  0
 12 20  4  0  0  0  0
 13 14  4  0  0  0  0
 14 15  4  0  0  0  0
 15 16  1  0  0  0  0
 15 17  4  0  0  0  0
 17 18  1  0  0  0  0
 17 20  4  0  0  0  0
 18 19  1  0  0  0  0
 20 21  1  0  0  0  0
 22 23  4  0  0  0  0
 23 24  4  0  0  0  0
  5 25  1  0  0  0  0
  1 26  1  0  0  0  0
  1 27  1  0  0  0  0
  1 28  1  0  0  0  0
 21 29  1  0  0  0  0
 21 30  1  0  0  0  0
 21 31  1  0  0  0  0
 19 32  1  0  0  0  0
 19 33  1  0  0  0  0
 19 34  1  0  0  0  0
 14 35  1  0  0  0  0
 16 36  1  0  0  0  0
 16 37  1  0  0  0  0
 16 38  1  0  0  0  0
 22 39  1  0  0  0  0
  4 40  1  0  0  0  0
 11 41  1  0  0  0  0
 11 42  1  0  0  0  0
 24 43  1  0  0  0  0
M  END
> <Molecule ChEMBL ID>
CHEMBL1503

> <Class(50)>
1

> <Class(80)>
1

>  <salt>
false

>  <StandardizerResult>
Tautomerize (ID: Tautomerize)
Transform (ID: Transform NO2 (1))
Aromatize (ID: Aromatize)
Wedge Clean (ID: Wedge Clean)
Clean 2D (ID: Clean2D)

$$$$
CHEMBL2146133
  Mrv2010 08032110442D          

 43 45  0  0  1  0            999 V2000
    2.5482    1.7608    0.0000 C   0  0  0  0  0  0  0  0  0  0  0  0
    1.8338    2.1733    0.0000 O   0  0  0  0  0  0  0  0  0  0  0  0
    1.1193    1.7608    0.0000 C   0  0  0  0  0  0  0  0  0  0  0  0
    1.1193    0.9358    0.0000 C   0  0  0  0  0  0  0  0  0  0  0  0
    0.4048    0.5233    0.0000 C   0  0  0  0  0  0  0  0  0  0  0  0
   -0.3097    0.9358    0.0000 C   0  0  0  0  0  0  0  0  0  0  0  0
   -1.0943    0.6809    0.0000 N   0  0  0  0  0  0  0  0  0  0  0  0
   -1.5792    1.3483    0.0000 C   0  0  0  0  0  0  0  0  0  0  0  0
   -2.4042    1.3483    0.0000 S   0  0  0  0  0  0  0  0  0  0  0  0
   -2.8167    2.0628    0.0000 O   0  0  0  0  0  0  0  0  0  0  0  0
   -2.8167    0.6338    0.0000 C   0  0  0  0  0  0  0  0  0  0  0  0
   -3.6417    0.6338    0.0000 C   0  0  0  0  0  0  0  0  0  0  0  0
   -4.0542   -0.0806    0.0000 N   0  0  0  0  0  0  0  0  0  0  0  0
   -4.8792   -0.0806    0.0000 C   0  0  0  0  0  0  0  0  0  0  0  0
   -5.2917    0.6338    0.0000 C   0  0  0  0  0  0  0  0  0  0  0  0
   -6.1167    0.6338    0.0000 C   0  0  0  0  0  0  0  0  0  0  0  0
   -4.8792    1.3483    0.0000 C   0  0  0  0  0  0  0  0  0  0  0  0
   -5.2917    2.0628    0.0000 O   0  0  0  0  0  0  0  0  0  0  0  0
   -4.8792    2.7773    0.0000 C   0  0  0  0  0  0  0  0  0  0  0  0
   -4.0542    1.3483    0.0000 C   0  0  0  0  0  0  0  0  0  0  0  0
   -3.6417    2.0628    0.0000 C   0  0  0  0  0  0  0  0  0  0  0  0
   -1.0943    2.0157    0.0000 N   0  0  0  0  0  0  0  0  0  0  0  0
   -0.3097    1.7608    0.0000 C   0  0  0  0  0  0  0  0  0  0  0  0
    0.4048    2.1733    0.0000 C   0  0  0  0  0  0  0  0  0  0  0  0
    2.1357    1.0463    0.0000 H   0  0  0  0  0  0  0  0  0  0  0  0
    3.2627    1.3483    0.0000 H   0  0  0  0  0  0  0  0  0  0  0  0
    2.9607    2.4753    0.0000 H   0  0  0  0  0  0  0  0  0  0  0  0
    1.8338    0.5233    0.0000 H   0  0  0  0  0  0  0  0  0  0  0  0
    0.4048   -0.3017    0.0000 H   0  0  0  0  0  0  0  0  0  0  0  0
   -2.7687   -0.1898    0.0000 H   0  0  0  0  0  0  0  0  0  0  0  0
   -2.1274    0.1805    0.0000 H   0  0  0  0  0  0  0  0  0  0  0  0
   -5.2917   -0.7951    0.0000 H   0  0  0  0  0  0  0  0  0  0  0  0
   -6.1167    1.4588    0.0000 H   0  0  0  0  0  0  0  0  0  0  0  0
   -6.9417    0.6338    0.0000 H   0  0  0  0  0  0  0  0  0  0  0  0
   -6.1167   -0.1912    0.0000 H   0  0  0  0  0  0  0  0  0  0  0  0
   -4.1647    2.3648    0.0000 H   0  0  0  0  0  0  0  0  0  0  0  0
   -4.4667    3.4917    0.0000 H   0  0  0  0  0  0  0  0  0  0  0  0
   -5.5937    3.1898    0.0000 H   0  0  0  0  0  0  0  0  0  0  0  0
   -3.1114    2.6948    0.0000 H   0  0  0  0  0  0  0  0  0  0  0  0
   -3.7850    2.8752    0.0000 H   0  0  0  0  0  0  0  0  0  0  0  0
   -3.2292    1.3483    0.0000 H   0  0  0  0  0  0  0  0  0  0  0  0
    0.4048    2.9983    0.0000 H   0  0  0  0  0  0  0  0  0  0  0  0
   -1.3492   -0.1038    0.0000 H   0  0  0  0  0  0  0  0  0  0  0  0
  1  2  1  0  0  0  0
  1 25  1  0  0  0  0
  1 26  1  0  0  0  0
  1 27  1  0  0  0  0
  2  3  1  0  0  0  0
  3  4  4  0  0  0  0
  3 24  4  0  0  0  0
  4  5  4  0  0  0  0
  4 28  1  0  0  0  0
  5  6  4  0  0  0  0
  5 29  1  0  0  0  0
  6  7  4  0  0  0  0
  6 23  4  0  0  0  0
  7  8  4  0  0  0  0
  8  9  1  0  0  0  0
  8 22  4  0  0  0  0
  9 10  2  0  0  0  0
  9 11  1  0  0  0  0
 11 12  1  0  0  0  0
 11 30  1  0  0  0  0
 11 31  1  0  0  0  0
 12 13  4  0  0  0  0
 12 20  4  0  0  0  0
 13 14  4  0  0  0  0
 14 15  4  0  0  0  0
 14 32  1  0  0  0  0
 15 16  1  0  0  0  0
 15 17  4  0  0  0  0
 16 33  1  0  0  0  0
 16 34  1  0  0  0  0
 16 35  1  0  0  0  0
 17 18  1  0  0  0  0
 17 20  4  0  0  0  0
 18 19  1  0  0  0  0
 19 36  1  0  0  0  0
 19 37  1  0  0  0  0
 19 38  1  0  0  0  0
 20 21  1  0  0  0  0
 21 39  1  0  0  0  0
 21 40  1  0  0  0  0
 21 41  1  0  0  0  0
 22 23  4  0  0  0  0
 23 24  4  0  0  0  0
 24 42  1  0  0  0  0
  7 43  1  0  0  0  0
M  END
> <Molecule ChEMBL ID>
CHEMBL2146133

> <Class(50)>
1

> <Class(80)>
1

>  <salt>
true

>  <StandardizerResult>
Neutralize (ID: Neutralize)
Aromatize (ID: Aromatize)
Add Explicit Hydrogens (ID: AddExplicitH)
Wedge Clean (ID: Wedge Clean)
Clean 2D (ID: Clean2D)

$$$$
CHEMBL4559134
  Mrv2010 08032110442D          

 70 75  0  0  1  0            999 V2000
   -7.1513   -2.9681    0.0000 C   0  0  0  0  0  0  0  0  0  0  0  0
   -7.5638   -2.2536    0.0000 O   0  0  0  0  0  0  0  0  0  0  0  0
   -7.1513   -1.5391    0.0000 C   0  0  0  0  0  0  0  0  0  0  0  0
   -7.5638   -0.8247    0.0000 C   0  0  0  0  0  0  0  0  0  0  0  0
   -7.1513   -0.1102    0.0000 C   0  0  0  0  0  0  0  0  0  0  0  0
   -6.3263   -0.1102    0.0000 C   0  0  0  0  0  0  0  0  0  0  0  0
   -5.9138    0.6043    0.0000 C   0  0  0  0  0  0  0  0  0  0  0  0
   -5.0888    0.6043    0.0000 N   0  0  0  0  0  0  0  0  0  0  0  0
   -4.6763    1.3187    0.0000 C   0  0  0  0  0  0  0  0  0  0  0  0
   -4.4977    0.6043    0.0000 C   0  0  0  0  0  0  0  0  0  0  0  0
   -4.6763   -0.1102    0.0000 C   0  0  0  0  0  0  0  0  0  0  0  0
   -3.8513   -0.1102    0.0000 C   0  0  0  0  0  0  0  0  0  0  0  0
   -3.4388    0.6043    0.0000 N   0  0  0  0  0  0  0  0  0  0  0  0
   -2.6138    0.6043    0.0000 C   0  0  0  0  0  0  0  0  0  0  0  0
   -2.2013    1.3187    0.0000 C   0  0  0  0  0  0  0  0  0  0  0  0
   -1.3763    1.3187    0.0000 C   0  0  0  0  0  0  0  0  0  0  0  0
   -0.9638    0.6043    0.0000 C   0  0  0  0  0  0  0  0  0  0  0  0
   -0.1388    0.6043    0.0000 C   0  0  0  0  0  0  0  0  0  0  0  0
    0.2737    1.3187    0.0000 C   0  0  0  0  0  0  0  0  0  0  0  0
    1.0987    1.3187    0.0000 C   0  0  0  0  0  0  0  0  0  0  0  0
    1.5112    2.0332    0.0000 O   0  0  0  0  0  0  0  0  0  0  0  0
    2.3362    2.0332    0.0000 C   0  0  0  0  0  0  0  0  0  0  0  0
    2.7487    2.7477    0.0000 C   0  0  0  0  0  0  0  0  0  0  0  0
    3.1612    3.4622    0.0000 C   0  0  0  0  0  0  0  0  0  0  0  0
    3.4632    2.3352    0.0000 C   0  0  0  0  0  0  0  0  0  0  0  0
    2.0342    3.1602    0.0000 O   0  0  0  0  0  0  0  0  0  0  0  0
    1.5112    0.6043    0.0000 C   0  0  0  0  0  0  0  0  0  0  0  0
    1.0987   -0.1102    0.0000 N   0  0  0  0  0  0  0  0  0  0  0  0
    1.3536   -0.8948    0.0000 N   0  0  0  0  0  0  0  0  0  0  0  0
    0.6862   -1.3797    0.0000 C   0  0  0  0  0  0  0  0  0  0  0  0
    0.0187   -0.8948    0.0000 C   0  0  0  0  0  0  0  0  0  0  0  0
   -0.7659   -1.1498    0.0000 C   0  0  0  0  0  0  0  0  0  0  0  0
   -1.5505   -1.4047    0.0000 N   0  0  0  0  0  0  0  0  0  0  0  0
    0.2737   -0.1102    0.0000 C   0  0  0  0  0  0  0  0  0  0  0  0
   -1.3763   -0.1102    0.0000 C   0  0  0  0  0  0  0  0  0  0  0  0
   -2.2013   -0.1102    0.0000 N   0  0  0  0  0  0  0  0  0  0  0  0
   -3.8513    1.3187    0.0000 C   0  0  0  0  0  0  0  0  0  0  0  0
   -5.9138   -0.8247    0.0000 C   0  0  0  0  0  0  0  0  0  0  0  0
   -6.3263   -1.5391    0.0000 N   0  0  0  0  0  0  0  0  0  0  0  0
   -5.0888    2.0332    0.0000 H   0  0  0  0  0  0  0  0  0  0  0  0
   -3.1620    1.7721    0.0000 H   0  0  0  0  0  0  0  0  0  0  0  0
   -3.8033    2.1423    0.0000 H   0  0  0  0  0  0  0  0  0  0  0  0
   -7.8658   -3.3806    0.0000 H   0  0  0  0  0  0  0  0  0  0  0  0
   -6.7388   -3.6826    0.0000 H   0  0  0  0  0  0  0  0  0  0  0  0
   -6.4368   -2.5556    0.0000 H   0  0  0  0  0  0  0  0  0  0  0  0
    1.2373    2.9467    0.0000 H   0  0  0  0  0  0  0  0  0  0  0  0
   -2.6138    2.0332    0.0000 H   0  0  0  0  0  0  0  0  0  0  0  0
   -0.9638   -0.8247    0.0000 H   0  0  0  0  0  0  0  0  0  0  0  0
    3.8757    3.0497    0.0000 H   0  0  0  0  0  0  0  0  0  0  0  0
    3.5737    4.1766    0.0000 H   0  0  0  0  0  0  0  0  0  0  0  0
    2.4467    3.8747    0.0000 H   0  0  0  0  0  0  0  0  0  0  0  0
    2.3842    1.2096    0.0000 H   0  0  0  0  0  0  0  0  0  0  0  0
    3.0255    1.5799    0.0000 H   0  0  0  0  0  0  0  0  0  0  0  0
   -5.9618    1.4279    0.0000 H   0  0  0  0  0  0  0  0  0  0  0  0
   -6.6031    1.0576    0.0000 H   0  0  0  0  0  0  0  0  0  0  0  0
   -0.1388    2.0332    0.0000 H   0  0  0  0  0  0  0  0  0  0  0  0
    3.6757    1.5380    0.0000 H   0  0  0  0  0  0  0  0  0  0  0  0
    4.1773    1.9221    0.0000 H   0  0  0  0  0  0  0  0  0  0  0  0
    4.2601    2.5484    0.0000 H   0  0  0  0  0  0  0  0  0  0  0  0
   -3.7045    0.3775    0.0000 H   0  0  0  0  0  0  0  0  0  0  0  0
   -3.7045    0.8310    0.0000 H   0  0  0  0  0  0  0  0  0  0  0  0
   -5.5013   -1.5391    0.0000 H   0  0  0  0  0  0  0  0  0  0  0  0
   -8.3888   -0.8247    0.0000 H   0  0  0  0  0  0  0  0  0  0  0  0
   -0.9638    2.0332    0.0000 H   0  0  0  0  0  0  0  0  0  0  0  0
    2.3362    0.6043    0.0000 H   0  0  0  0  0  0  0  0  0  0  0  0
   -7.5638    0.6043    0.0000 H   0  0  0  0  0  0  0  0  0  0  0  0
   -3.8033   -0.9338    0.0000 H   0  0  0  0  0  0  0  0  0  0  0  0
   -3.1620   -0.5635    0.0000 H   0  0  0  0  0  0  0  0  0  0  0  0
   -5.0888   -0.8247    0.0000 H   0  0  0  0  0  0  0  0  0  0  0  0
    0.6862   -2.2047    0.0000 H   0  0  0  0  0  0  0  0  0  0  0  0
  1  2  1  0  0  0  0
  2  3  1  0  0  0  0
  3  4  4  0  0  0  0
  3 39  4  0  0  0  0
  4  5  4  0  0  0  0
  5  6  4  0  0  0  0
  6  7  1  0  0  0  0
  6 38  4  0  0  0  0
  7  8  1  0  0  0  0
  8  9  1  0  0  0  0
  8 11  1  0  0  0  0
  9 10  1  0  0  0  0
  9 37  1  0  0  0  0
 10 11  1  0  0  0  0
 11 12  1  0  0  0  0
 12 13  1  0  0  0  0
 13 14  1  0  0  0  0
 13 37  1  0  0  0  0
 14 15  4  0  0  0  0
 14 36  4  0  0  0  0
 15 16  4  0  0  0  0
 16 17  4  0  0  0  0
 17 18  1  0  0  0  0
 17 35  4  0  0  0  0
 18 19  4  0  0  0  0
 18 34  4  0  0  0  0
 19 20  4  0  0  0  0
 20 21  1  0  0  0  0
 20 27  4  0  0  0  0
 21 22  1  0  0  0  0
 22 23  1  0  0  0  0
 23 24  1  0  0  0  0
 23 25  1  0  0  0  0
 23 26  1  0  0  0  0
 27 28  4  0  0  0  0
 28 29  4  0  0  0  0
 28 34  4  0  0  0  0
 29 30  4  0  0  0  0
 30 31  4  0  0  0  0
 31 32  1  0  0  0  0
 31 34  4  0  0  0  0
 32 33  3  0  0  0  0
 35 36  4  0  0  0  0
 38 39  4  0  0  0  0
  9 40  1  0  0  0  0
 37 41  1  0  0  0  0
 37 42  1  0  0  0  0
  1 43  1  0  0  0  0
  1 44  1  0  0  0  0
  1 45  1  0  0  0  0
 26 46  1  0  0  0  0
 15 47  1  0  0  0  0
 35 48  1  0  0  0  0
 24 49  1  0  0  0  0
 24 50  1  0  0  0  0
 24 51  1  0  0  0  0
 22 52  1  0  0  0  0
 22 53  1  0  0  0  0
  7 54  1  0  0  0  0
  7 55  1  0  0  0  0
 19 56  1  0  0  0  0
 25 57  1  0  0  0  0
 25 58  1  0  0  0  0
 25 59  1  0  0  0  0
 10 60  1  0  0  0  0
 10 61  1  0  0  0  0
 38 62  1  0  0  0  0
  4 63  1  0  0  0  0
 16 64  1  0  0  0  0
 27 65  1  0  0  0  0
  5 66  1  0  0  0  0
 12 67  1  0  0  0  0
 12 68  1  0  0  0  0
 11 69  1  0  0  0  0
 30 70  1  0  0  0  0
M  END
> <Molecule ChEMBL ID>
CHEMBL4559134

> <Class(50)>
1

> <Class(80)>
1

>  <salt>
false

>  <StandardizerResult>
Tautomerize (ID: Tautomerize)
Transform (ID: Transform NO2 (1))
Aromatize (ID: Aromatize)
Wedge Clean (ID: Wedge Clean)
Clean 2D (ID: Clean2D)

$$$$
CHEMBL1801204
  Mrv2010 08032110442D          

 65 69  0  0  1  0            999 V2000
   -4.8272   -2.3995    0.0000 C   0  0  0  0  0  0  0  0  0  0  0  0
   -4.8272   -1.5745    0.0000 O   0  0  0  0  0  0  0  0  0  0  0  0
   -4.1128   -1.1620    0.0000 C   0  0  0  0  0  0  0  0  0  0  0  0
   -4.1128   -0.3370    0.0000 C   0  0  0  0  0  0  0  0  0  0  0  0
   -3.3983    0.0755    0.0000 C   0  0  0  0  0  0  0  0  0  0  0  0
   -2.6838   -0.3370    0.0000 C   0  0  0  0  0  0  0  0  0  0  0  0
   -1.9694    0.0755    0.0000 C   0  0  0  0  0  0  0  0  0  0  0  0
   -1.9694    0.9005    0.0000 C   0  0  0  0  0  0  0  0  0  0  0  0
   -1.2549    1.3130    0.0000 C   0  0  0  0  0  0  0  0  0  0  0  0
   -0.5404    0.9005    0.0000 C   0  0  0  0  0  0  0  0  0  0  0  0
    0.1741    1.3130    0.0000 C   0  0  0  0  0  0  0  0  0  0  0  0
    0.1741    2.1380    0.0000 N   0  0  0  0  0  0  0  0  0  0  0  0
   -0.5404    2.5505    0.0000 C   0  0  0  0  0  0  0  0  0  0  0  0
   -0.5404    3.3755    0.0000 C   0  0  0  0  0  0  0  0  0  0  0  0
    0.1741    3.7880    0.0000 O   0  0  0  0  0  0  0  0  0  0  0  0
    0.8885    3.3755    0.0000 C   0  0  0  0  0  0  0  0  0  0  0  0
    0.8885    2.5505    0.0000 C   0  0  1  0  0  0  0  0  0  0  0  0
    1.6030    2.1380    0.0000 C   0  0  0  0  0  0  0  0  0  0  0  0
    0.8885    0.9005    0.0000 N   0  0  0  0  0  0  0  0  0  0  0  0
    0.8885    0.0755    0.0000 C   0  0  0  0  0  0  0  0  0  0  0  0
    1.6030   -0.3370    0.0000 N   0  0  0  0  0  0  0  0  0  0  0  0
    2.3175    0.0755    0.0000 C   0  0  0  0  0  0  0  0  0  0  0  0
    3.0319   -0.3370    0.0000 C   0  0  0  0  0  0  0  0  0  0  0  0
    3.0319   -1.1620    0.0000 O   0  0  0  0  0  0  0  0  0  0  0  0
    2.3175   -1.5745    0.0000 C   0  0  0  0  0  0  0  0  0  0  0  0
    1.6030   -1.1620    0.0000 C   0  0  1  0  0  0  0  0  0  0  0  0
    0.8885   -1.5745    0.0000 C   0  0  0  0  0  0  0  0  0  0  0  0
    0.1741   -0.3370    0.0000 N   0  0  0  0  0  0  0  0  0  0  0  0
   -0.5404    0.0755    0.0000 C   0  0  0  0  0  0  0  0  0  0  0  0
   -1.2549   -0.3370    0.0000 N   0  0  0  0  0  0  0  0  0  0  0  0
   -2.6838   -1.1620    0.0000 C   0  0  0  0  0  0  0  0  0  0  0  0
   -3.3983   -1.5745    0.0000 C   0  0  0  0  0  0  0  0  0  0  0  0
   -3.3983   -2.3995    0.0000 C   0  0  0  0  0  0  0  0  0  0  0  0
   -2.6838   -2.8120    0.0000 O   0  0  0  0  0  0  0  0  0  0  0  0
   -0.6837    4.1880    0.0000 H   0  0  0  0  0  0  0  0  0  0  0  0
   -1.1724    3.9058    0.0000 H   0  0  0  0  0  0  0  0  0  0  0  0
    1.8165    1.3411    0.0000 H   0  0  0  0  0  0  0  0  0  0  0  0
    2.4280    2.1380    0.0000 H   0  0  0  0  0  0  0  0  0  0  0  0
    1.8165    2.9349    0.0000 H   0  0  0  0  0  0  0  0  0  0  0  0
   -2.6838    1.3130    0.0000 H   0  0  0  0  0  0  0  0  0  0  0  0
   -0.5404    1.7255    0.0000 H   0  0  0  0  0  0  0  0  0  0  0  0
   -1.2549    2.9630    0.0000 H   0  0  0  0  0  0  0  0  0  0  0  0
    3.8555   -0.2890    0.0000 H   0  0  0  0  0  0  0  0  0  0  0  0
    3.4853    0.3523    0.0000 H   0  0  0  0  0  0  0  0  0  0  0  0
    2.6877    0.8128    0.0000 H   0  0  0  0  0  0  0  0  0  0  0  0
    1.9472    0.8128    0.0000 H   0  0  0  0  0  0  0  0  0  0  0  0
   -3.6118   -3.1964    0.0000 H   0  0  0  0  0  0  0  0  0  0  0  0
   -2.6838   -1.9870    0.0000 H   0  0  0  0  0  0  0  0  0  0  0  0
    0.0916   -1.3609    0.0000 H   0  0  0  0  0  0  0  0  0  0  0  0
    0.4760   -2.2889    0.0000 H   0  0  0  0  0  0  0  0  0  0  0  0
    1.4719   -2.1578    0.0000 H   0  0  0  0  0  0  0  0  0  0  0  0
   -2.2713   -3.5264    0.0000 H   0  0  0  0  0  0  0  0  0  0  0  0
    0.8885   -0.7495    0.0000 H   0  0  0  0  0  0  0  0  0  0  0  0
    0.8885    1.7255    0.0000 H   0  0  0  0  0  0  0  0  0  0  0  0
   -4.8272    0.0755    0.0000 H   0  0  0  0  0  0  0  0  0  0  0  0
    1.9472   -2.3117    0.0000 H   0  0  0  0  0  0  0  0  0  0  0  0
    2.6877   -2.3117    0.0000 H   0  0  0  0  0  0  0  0  0  0  0  0
   -3.3983    0.9005    0.0000 H   0  0  0  0  0  0  0  0  0  0  0  0
    1.7121    3.4235    0.0000 H   0  0  0  0  0  0  0  0  0  0  0  0
    1.3419    4.0648    0.0000 H   0  0  0  0  0  0  0  0  0  0  0  0
   -5.6522   -2.3995    0.0000 H   0  0  0  0  0  0  0  0  0  0  0  0
   -4.8272   -3.2245    0.0000 H   0  0  0  0  0  0  0  0  0  0  0  0
   -4.0022   -2.3995    0.0000 H   0  0  0  0  0  0  0  0  0  0  0  0
   -1.2549    2.1380    0.0000 H   0  0  0  0  0  0  0  0  0  0  0  0
   -1.9694   -1.5745    0.0000 H   0  0  0  0  0  0  0  0  0  0  0  0
  1  2  1  0  0  0  0
  2  3  1  0  0  0  0
  3  4  4  0  0  0  0
  3 32  4  0  0  0  0
  4  5  4  0  0  0  0
  5  6  4  0  0  0  0
  6  7  1  0  0  0  0
  6 31  4  0  0  0  0
  7  8  4  0  0  0  0
  7 30  4  0  0  0  0
  8  9  4  0  0  0  0
  9 10  4  0  0  0  0
 10 11  4  0  0  0  0
 10 29  4  0  0  0  0
 11 12  1  0  0  0  0
 11 19  4  0  0  0  0
 12 13  1  0  0  0  0
 17 12  1  0  0  0  0
 13 14  1  0  0  0  0
 14 15  1  0  0  0  0
 15 16  1  0  0  0  0
 17 16  1  0  0  0  0
 17 18  1  0  0  0  0
 19 20  4  0  0  0  0
 20 21  1  0  0  0  0
 20 28  4  0  0  0  0
 21 22  1  0  0  0  0
 26 21  1  0  0  0  0
 22 23  1  0  0  0  0
 23 24  1  0  0  0  0
 24 25  1  0  0  0  0
 26 25  1  0  0  0  0
 26 27  1  0  0  0  0
 28 29  4  0  0  0  0
 29 30  4  0  0  0  0
 31 32  4  0  0  0  0
 32 33  1  0  0  0  0
 33 34  1  0  0  0  0
 14 35  1  0  0  0  0
 14 36  1  0  0  0  0
 18 37  1  0  0  0  0
 18 38  1  0  0  0  0
 18 39  1  0  0  0  0
  8 40  1  0  0  0  0
 13 41  1  0  0  0  0
 13 42  1  0  0  0  0
 23 43  1  0  0  0  0
 23 44  1  0  0  0  0
 22 45  1  0  0  0  0
 22 46  1  0  0  0  0
 33 47  1  0  0  0  0
 33 48  1  0  0  0  0
 27 49  1  0  0  0  0
 27 50  1  0  0  0  0
 27 51  1  0  0  0  0
 34 52  1  0  0  0  0
 26 53  1  6  0  0  0
 17 54  1  6  0  0  0
  4 55  1  0  0  0  0
 25 56  1  0  0  0  0
 25 57  1  0  0  0  0
  5 58  1  0  0  0  0
 16 59  1  0  0  0  0
 16 60  1  0  0  0  0
  1 61  1  0  0  0  0
  1 62  1  0  0  0  0
  1 63  1  0  0  0  0
  9 64  1  0  0  0  0
 31 65  1  0  0  0  0
M  END
> <Molecule ChEMBL ID>
CHEMBL1801204

> <Class(50)>
1

> <Class(80)>
1

>  <salt>
false

>  <StandardizerResult>
Tautomerize (ID: Tautomerize)
Transform (ID: Transform NO2 (1))
Aromatize (ID: Aromatize)
Wedge Clean (ID: Wedge Clean)
Clean 2D (ID: Clean2D)

$$$$
CHEMBL1234354
  Mrv2010 08032110442D          

 58 61  0  0  0  0            999 V2000
   -5.1223    1.0831    0.0000 C   0  0  0  0  0  0  0  0  0  0  0  0
   -4.4078    1.4956    0.0000 O   0  0  0  0  0  0  0  0  0  0  0  0
   -3.6934    1.0831    0.0000 C   0  0  0  0  0  0  0  0  0  0  0  0
   -2.9789    1.4956    0.0000 C   0  0  0  0  0  0  0  0  0  0  0  0
   -2.2644    1.0831    0.0000 C   0  0  0  0  0  0  0  0  0  0  0  0
   -2.2644    0.2581    0.0000 C   0  0  0  0  0  0  0  0  0  0  0  0
   -1.5499   -0.1544    0.0000 C   0  0  0  0  0  0  0  0  0  0  0  0
   -0.8355    0.2581    0.0000 C   0  0  0  0  0  0  0  0  0  0  0  0
   -0.1210   -0.1544    0.0000 C   0  0  0  0  0  0  0  0  0  0  0  0
    0.5935    0.2581    0.0000 C   0  0  0  0  0  0  0  0  0  0  0  0
    0.5935    1.0831    0.0000 C   0  0  0  0  0  0  0  0  0  0  0  0
    1.3079   -0.1544    0.0000 N   0  0  0  0  0  0  0  0  0  0  0  0
    1.3079   -0.9794    0.0000 C   0  0  0  0  0  0  0  0  0  0  0  0
    2.0224   -1.3919    0.0000 N   0  0  0  0  0  0  0  0  0  0  0  0
    0.5935   -1.3919    0.0000 N   0  0  0  0  0  0  0  0  0  0  0  0
   -0.1210   -0.9794    0.0000 C   0  0  0  0  0  0  0  0  0  0  0  0
   -0.8355   -1.3919    0.0000 N   0  0  0  0  0  0  0  0  0  0  0  0
   -0.8355   -2.2169    0.0000 C   0  0  1  0  0  0  0  0  0  0  0  0
   -0.1210   -2.6294    0.0000 C   0  0  0  0  0  0  0  0  0  0  0  0
   -0.1210   -3.4544    0.0000 C   0  0  0  0  0  0  0  0  0  0  0  0
   -0.8355   -3.8669    0.0000 C   0  0  1  0  0  0  0  0  0  0  0  0
   -0.8355   -4.6919    0.0000 O   0  0  0  0  0  0  0  0  0  0  0  0
   -0.1210   -5.1044    0.0000 C   0  0  0  0  0  0  0  0  0  0  0  0
   -0.1210   -5.9294    0.0000 C   0  0  0  0  0  0  0  0  0  0  0  0
    0.5935   -6.3419    0.0000 O   0  0  0  0  0  0  0  0  0  0  0  0
   -1.5499   -3.4544    0.0000 C   0  0  0  0  0  0  0  0  0  0  0  0
   -1.5499   -2.6294    0.0000 C   0  0  0  0  0  0  0  0  0  0  0  0
   -1.5499   -0.9794    0.0000 C   0  0  0  0  0  0  0  0  0  0  0  0
   -2.2644   -1.3919    0.0000 O   0  0  0  0  0  0  0  0  0  0  0  0
   -2.9789   -0.1544    0.0000 C   0  0  0  0  0  0  0  0  0  0  0  0
   -3.6934    0.2581    0.0000 N   0  0  0  0  0  0  0  0  0  0  0  0
    1.4185    1.0831    0.0000 H   0  0  0  0  0  0  0  0  0  0  0  0
    0.5935    1.9081    0.0000 H   0  0  0  0  0  0  0  0  0  0  0  0
   -0.2315    1.0831    0.0000 H   0  0  0  0  0  0  0  0  0  0  0  0
    0.7026   -5.0565    0.0000 H   0  0  0  0  0  0  0  0  0  0  0  0
    0.3323   -4.4151    0.0000 H   0  0  0  0  0  0  0  0  0  0  0  0
   -2.9789   -0.9794    0.0000 H   0  0  0  0  0  0  0  0  0  0  0  0
   -5.5348    1.7975    0.0000 H   0  0  0  0  0  0  0  0  0  0  0  0
   -5.8368    0.6706    0.0000 H   0  0  0  0  0  0  0  0  0  0  0  0
   -4.7098    0.3686    0.0000 H   0  0  0  0  0  0  0  0  0  0  0  0
    0.3323   -4.1437    0.0000 H   0  0  0  0  0  0  0  0  0  0  0  0
    0.7026   -3.5024    0.0000 H   0  0  0  0  0  0  0  0  0  0  0  0
   -0.8355    1.0831    0.0000 H   0  0  0  0  0  0  0  0  0  0  0  0
   -2.3252   -3.1723    0.0000 H   0  0  0  0  0  0  0  0  0  0  0  0
   -2.3252   -3.7366    0.0000 H   0  0  0  0  0  0  0  0  0  0  0  0
   -1.5499   -1.8044    0.0000 H   0  0  0  0  0  0  0  0  0  0  0  0
   -2.2817   -2.2485    0.0000 H   0  0  0  0  0  0  0  0  0  0  0  0
   -0.8355   -3.0419    0.0000 H   0  0  0  0  0  0  0  0  0  0  0  0
   -1.5499   -4.2794    0.0000 H   0  0  0  0  0  0  0  0  0  0  0  0
    0.5935   -7.1669    0.0000 H   0  0  0  0  0  0  0  0  0  0  0  0
   -1.5499    1.4956    0.0000 H   0  0  0  0  0  0  0  0  0  0  0  0
    2.0224   -2.2169    0.0000 H   0  0  0  0  0  0  0  0  0  0  0  0
    2.7369   -0.9794    0.0000 H   0  0  0  0  0  0  0  0  0  0  0  0
   -2.9789    2.3206    0.0000 H   0  0  0  0  0  0  0  0  0  0  0  0
   -0.9446   -5.9774    0.0000 H   0  0  0  0  0  0  0  0  0  0  0  0
   -0.5744   -6.6187    0.0000 H   0  0  0  0  0  0  0  0  0  0  0  0
    0.7026   -2.5815    0.0000 H   0  0  0  0  0  0  0  0  0  0  0  0
    0.3323   -1.9401    0.0000 H   0  0  0  0  0  0  0  0  0  0  0  0
  1  2  1  0  0  0  0
  2  3  1  0  0  0  0
  3  4  4  0  0  0  0
  3 31  4  0  0  0  0
  4  5  4  0  0  0  0
  5  6  4  0  0  0  0
  6  7  1  0  0  0  0
  6 30  4  0  0  0  0
  7  8  2  0  0  0  0
  7 28  1  0  0  0  0
  8  9  1  0  0  0  0
  9 10  4  0  0  0  0
  9 16  4  0  0  0  0
 10 11  1  0  0  0  0
 10 12  4  0  0  0  0
 12 13  4  0  0  0  0
 13 14  1  0  0  0  0
 13 15  4  0  0  0  0
 15 16  4  0  0  0  0
 16 17  1  0  0  0  0
 18 17  1  0  0  0  0
 17 28  1  0  0  0  0
 18 19  1  0  0  0  0
 18 27  1  0  0  0  0
 19 20  1  0  0  0  0
 21 20  1  0  0  0  0
 21 22  1  0  0  0  0
 21 26  1  0  0  0  0
 22 23  1  0  0  0  0
 23 24  1  0  0  0  0
 24 25  1  0  0  0  0
 26 27  1  0  0  0  0
 28 29  2  0  0  0  0
 30 31  4  0  0  0  0
 11 32  1  0  0  0  0
 11 33  1  0  0  0  0
 11 34  1  0  0  0  0
 23 35  1  0  0  0  0
 23 36  1  0  0  0  0
 30 37  1  0  0  0  0
  1 38  1  0  0  0  0
  1 39  1  0  0  0  0
  1 40  1  0  0  0  0
 20 41  1  0  0  0  0
 20 42  1  0  0  0  0
  8 43  1  0  0  0  0
 26 44  1  0  0  0  0
 26 45  1  0  0  0  0
 18 46  1  6  0  0  0
 27 47  1  0  0  0  0
 27 48  1  0  0  0  0
 21 49  1  6  0  0  0
 25 50  1  0  0  0  0
  5 51  1  0  0  0  0
 14 52  1  0  0  0  0
 14 53  1  0  0  0  0
  4 54  1  0  0  0  0
 24 55  1  0  0  0  0
 24 56  1  0  0  0  0
 19 57  1  0  0  0  0
 19 58  1  0  0  0  0
M  END
> <Molecule ChEMBL ID>
CHEMBL1234354

> <Class(50)>
1

> <Class(80)>
1

>  <salt>
false

>  <StandardizerResult>
Tautomerize (ID: Tautomerize)
Neutralize (ID: Neutralize)
Aromatize (ID: Aromatize)
Wedge Clean (ID: Wedge Clean)
Clean 2D (ID: Clean2D)

$$$$
CHEMBL1370630
  Mrv2010 08032110442D          

 50 53  0  0  1  0            999 V2000
   -1.5851    4.1567    0.0000 C   0  0  0  0  0  0  0  0  0  0  0  0
   -0.8706    3.7442    0.0000 O   0  0  0  0  0  0  0  0  0  0  0  0
   -0.8706    2.9192    0.0000 C   0  0  0  0  0  0  0  0  0  0  0  0
   -0.1561    2.5067    0.0000 C   0  0  0  0  0  0  0  0  0  0  0  0
   -0.1561    1.6817    0.0000 C   0  0  0  0  0  0  0  0  0  0  0  0
   -0.8706    1.2692    0.0000 C   0  0  0  0  0  0  0  0  0  0  0  0
   -0.8706    0.4442    0.0000 C   0  0  0  0  0  0  0  0  0  0  0  0
   -0.2032   -0.0407    0.0000 C   0  0  0  0  0  0  0  0  0  0  0  0
   -0.4581   -0.8254    0.0000 C   0  0  0  0  0  0  0  0  0  0  0  0
   -1.2831   -0.8254    0.0000 N   0  0  0  0  0  0  0  0  0  0  0  0
   -1.5381   -0.0407    0.0000 N   0  0  0  0  0  0  0  0  0  0  0  0
   -2.3227    0.2142    0.0000 C   0  0  0  0  0  0  0  0  0  0  0  0
   -2.9358   -0.3378    0.0000 C   0  0  0  0  0  0  0  0  0  0  0  0
   -3.7204   -0.0829    0.0000 C   0  0  0  0  0  0  0  0  0  0  0  0
   -3.8919    0.7241    0.0000 C   0  0  0  0  0  0  0  0  0  0  0  0
   -4.6765    0.9790    0.0000 S   0  0  0  0  0  0  0  0  0  0  0  0
   -5.4612    1.2340    0.0000 O   0  0  0  0  0  0  0  0  0  0  0  0
   -4.4216    1.7636    0.0000 O   0  0  0  0  0  0  0  0  0  0  0  0
   -4.9315    0.1944    0.0000 N   0  0  0  0  0  0  0  0  0  0  0  0
   -3.2788    1.2761    0.0000 C   0  0  0  0  0  0  0  0  0  0  0  0
   -2.4942    1.0212    0.0000 C   0  0  0  0  0  0  0  0  0  0  0  0
    0.0268   -1.4928    0.0000 C   0  0  0  0  0  0  0  0  0  0  0  0
    0.8473   -1.4066    0.0000 C   0  0  0  0  0  0  0  0  0  0  0  0
    1.3322   -2.0740    0.0000 C   0  0  0  0  0  0  0  0  0  0  0  0
    0.9966   -2.8277    0.0000 C   0  0  0  0  0  0  0  0  0  0  0  0
    0.1762   -2.9139    0.0000 C   0  0  0  0  0  0  0  0  0  0  0  0
   -0.3088   -2.2465    0.0000 C   0  0  0  0  0  0  0  0  0  0  0  0
   -1.5851    1.6817    0.0000 C   0  0  0  0  0  0  0  0  0  0  0  0
   -1.5851    2.5067    0.0000 C   0  0  0  0  0  0  0  0  0  0  0  0
    2.1527   -1.9878    0.0000 H   0  0  0  0  0  0  0  0  0  0  0  0
   -4.3335   -0.6349    0.0000 H   0  0  0  0  0  0  0  0  0  0  0  0
    1.1828   -0.6529    0.0000 H   0  0  0  0  0  0  0  0  0  0  0  0
    1.4816   -3.4951    0.0000 H   0  0  0  0  0  0  0  0  0  0  0  0
   -0.1594   -3.6676    0.0000 H   0  0  0  0  0  0  0  0  0  0  0  0
   -1.1726    4.8712    0.0000 H   0  0  0  0  0  0  0  0  0  0  0  0
   -2.2996    4.5692    0.0000 H   0  0  0  0  0  0  0  0  0  0  0  0
   -1.9976    3.4422    0.0000 H   0  0  0  0  0  0  0  0  0  0  0  0
   -2.2749    1.8165    0.0000 H   0  0  0  0  0  0  0  0  0  0  0  0
    0.5583    2.9192    0.0000 H   0  0  0  0  0  0  0  0  0  0  0  0
    0.6093   -0.1840    0.0000 H   0  0  0  0  0  0  0  0  0  0  0  0
    0.3699    0.5527    0.0000 H   0  0  0  0  0  0  0  0  0  0  0  0
    0.5583    1.2692    0.0000 H   0  0  0  0  0  0  0  0  0  0  0  0
   -2.7642   -1.1448    0.0000 H   0  0  0  0  0  0  0  0  0  0  0  0
   -1.6057    0.8187    0.0000 H   0  0  0  0  0  0  0  0  0  0  0  0
   -1.1292   -2.3327    0.0000 H   0  0  0  0  0  0  0  0  0  0  0  0
   -0.8706    2.0942    0.0000 H   0  0  0  0  0  0  0  0  0  0  0  0
   -3.4504    2.0831    0.0000 H   0  0  0  0  0  0  0  0  0  0  0  0
   -2.2996    2.9192    0.0000 H   0  0  0  0  0  0  0  0  0  0  0  0
   -5.7385    0.0229    0.0000 H   0  0  0  0  0  0  0  0  0  0  0  0
   -4.3795   -0.4187    0.0000 H   0  0  0  0  0  0  0  0  0  0  0  0
  1  2  1  0  0  0  0
  2  3  1  0  0  0  0
  3  4  4  0  0  0  0
  3 29  4  0  0  0  0
  4  5  4  0  0  0  0
  5  6  4  0  0  0  0
  6  7  1  0  0  0  0
  6 28  4  0  0  0  0
  7  8  1  0  0  0  0
  7 11  1  0  0  0  0
  8  9  1  0  0  0  0
  9 10  2  0  0  0  0
  9 22  1  0  0  0  0
 10 11  1  0  0  0  0
 11 12  1  0  0  0  0
 12 13  4  0  0  0  0
 12 21  4  0  0  0  0
 13 14  4  0  0  0  0
 14 15  4  0  0  0  0
 15 16  1  0  0  0  0
 15 20  4  0  0  0  0
 16 17  2  0  0  0  0
 16 18  2  0  0  0  0
 16 19  1  0  0  0  0
 20 21  4  0  0  0  0
 22 23  4  0  0  0  0
 22 27  4  0  0  0  0
 23 24  4  0  0  0  0
 24 25  4  0  0  0  0
 25 26  4  0  0  0  0
 26 27  4  0  0  0  0
 28 29  4  0  0  0  0
 24 30  1  0  0  0  0
 14 31  1  0  0  0  0
 23 32  1  0  0  0  0
 25 33  1  0  0  0  0
 26 34  1  0  0  0  0
  1 35  1  0  0  0  0
  1 36  1  0  0  0  0
  1 37  1  0  0  0  0
 21 38  1  0  0  0  0
  4 39  1  0  0  0  0
  8 40  1  0  0  0  0
  8 41  1  0  0  0  0
  5 42  1  0  0  0  0
 13 43  1  0  0  0  0
  7 44  1  0  0  0  0
 27 45  1  0  0  0  0
 28 46  1  0  0  0  0
 20 47  1  0  0  0  0
 29 48  1  0  0  0  0
 19 49  1  0  0  0  0
 19 50  1  0  0  0  0
M  END
> <Molecule ChEMBL ID>
CHEMBL1370630

> <Class(50)>
1

> <Class(80)>
1

>  <salt>
false

>  <StandardizerResult>
Tautomerize (ID: Tautomerize)
Transform (ID: Transform NO2 (1))
Aromatize (ID: Aromatize)
Wedge Clean (ID: Wedge Clean)
Clean 2D (ID: Clean2D)

$$$$
CHEMBL16312
  Mrv2010 08032110442D          

 31 33  0  0  0  0            999 V2000
   -3.5268   -4.2860    0.0000 C   0  0  0  0  0  0  0  0  0  0  0  0
   -3.5268   -3.4610    0.0000 O   0  0  0  0  0  0  0  0  0  0  0  0
   -2.8124   -3.0485    0.0000 C   0  0  0  0  0  0  0  0  0  0  0  0
   -2.8124   -2.2235    0.0000 C   0  0  0  0  0  0  0  0  0  0  0  0
   -2.0979   -1.8110    0.0000 C   0  0  0  0  0  0  0  0  0  0  0  0
   -1.3834   -2.2235    0.0000 C   0  0  0  0  0  0  0  0  0  0  0  0
   -0.6690   -1.8110    0.0000 C   0  0  0  0  0  0  0  0  0  0  0  0
   -0.6690   -0.9860    0.0000 C   0  0  0  0  0  0  0  0  0  0  0  0
    0.0455   -0.5735    0.0000 C   0  0  0  0  0  0  0  0  0  0  0  0
    0.0455    0.2515    0.0000 O   0  0  0  0  0  0  0  0  0  0  0  0
    0.7600   -0.9860    0.0000 C   0  0  0  0  0  0  0  0  0  0  0  0
    1.4745   -0.5735    0.0000 C   0  0  0  0  0  0  0  0  0  0  0  0
    2.1889   -0.9860    0.0000 C   0  0  0  0  0  0  0  0  0  0  0  0
    2.1889   -1.8110    0.0000 C   0  0  0  0  0  0  0  0  0  0  0  0
    1.4745   -2.2235    0.0000 C   0  0  0  0  0  0  0  0  0  0  0  0
    0.7600   -1.8110    0.0000 C   0  0  0  0  0  0  0  0  0  0  0  0
    0.0455   -2.2235    0.0000 O   0  0  0  0  0  0  0  0  0  0  0  0
   -1.3834   -3.0485    0.0000 C   0  0  0  0  0  0  0  0  0  0  0  0
   -2.0979   -3.4610    0.0000 C   0  0  0  0  0  0  0  0  0  0  0  0
   -2.0979   -4.2860    0.0000 H   0  0  0  0  0  0  0  0  0  0  0  0
    2.9034   -0.5735    0.0000 H   0  0  0  0  0  0  0  0  0  0  0  0
    1.4745   -3.0485    0.0000 H   0  0  0  0  0  0  0  0  0  0  0  0
    2.9034   -2.2235    0.0000 H   0  0  0  0  0  0  0  0  0  0  0  0
   -3.5268   -1.8110    0.0000 H   0  0  0  0  0  0  0  0  0  0  0  0
   -2.0979   -0.9860    0.0000 H   0  0  0  0  0  0  0  0  0  0  0  0
    1.4745    0.2515    0.0000 H   0  0  0  0  0  0  0  0  0  0  0  0
   -4.3518   -4.2860    0.0000 H   0  0  0  0  0  0  0  0  0  0  0  0
   -3.5268   -5.1110    0.0000 H   0  0  0  0  0  0  0  0  0  0  0  0
   -2.7018   -4.2860    0.0000 H   0  0  0  0  0  0  0  0  0  0  0  0
   -1.3834   -0.5735    0.0000 H   0  0  0  0  0  0  0  0  0  0  0  0
   -0.6690   -3.4610    0.0000 H   0  0  0  0  0  0  0  0  0  0  0  0
  1  2  1  0  0  0  0
  2  3  1  0  0  0  0
  3  4  4  0  0  0  0
  3 19  4  0  0  0  0
  4  5  4  0  0  0  0
  5  6  4  0  0  0  0
  6  7  1  0  0  0  0
  6 18  4  0  0  0  0
  7  8  2  0  0  0  0
  7 17  1  0  0  0  0
  8  9  1  0  0  0  0
  9 10  2  0  0  0  0
  9 11  1  0  0  0  0
 11 12  4  0  0  0  0
 11 16  4  0  0  0  0
 12 13  4  0  0  0  0
 13 14  4  0  0  0  0
 14 15  4  0  0  0  0
 15 16  4  0  0  0  0
 16 17  1  0  0  0  0
 18 19  4  0  0  0  0
 19 20  1  0  0  0  0
 13 21  1  0  0  0  0
 15 22  1  0  0  0  0
 14 23  1  0  0  0  0
  4 24  1  0  0  0  0
  5 25  1  0  0  0  0
 12 26  1  0  0  0  0
  1 27  1  0  0  0  0
  1 28  1  0  0  0  0
  1 29  1  0  0  0  0
  8 30  1  0  0  0  0
 18 31  1  0  0  0  0
M  END
> <Molecule ChEMBL ID>
CHEMBL16312

> <Class(50)>
1

> <Class(80)>
1

>  <salt>
false

>  <StandardizerResult>
Tautomerize (ID: Tautomerize)
Neutralize (ID: Neutralize)
Aromatize (ID: Aromatize)
Wedge Clean (ID: Wedge Clean)
Clean 2D (ID: Clean2D)

$$$$
CHEMBL481049
  Mrv2010 08032110442D          

 25 26  0  0  0  0            999 V2000
   -1.7157   -3.0565    0.0000 C   0  0  0  0  0  0  0  0  0  0  0  0
   -1.7157   -2.2315    0.0000 O   0  0  0  0  0  0  0  0  0  0  0  0
   -1.0012   -1.8190    0.0000 C   0  0  0  0  0  0  0  0  0  0  0  0
   -1.0012   -0.9940    0.0000 C   0  0  0  0  0  0  0  0  0  0  0  0
   -0.2868   -0.5815    0.0000 C   0  0  0  0  0  0  0  0  0  0  0  0
   -0.2868    0.2435    0.0000 O   0  0  0  0  0  0  0  0  0  0  0  0
    0.4277    0.6560    0.0000 C   0  0  0  0  0  0  0  0  0  0  0  0
    0.4277   -0.9940    0.0000 C   0  0  0  0  0  0  0  0  0  0  0  0
    1.1422   -0.5815    0.0000 C   0  0  0  0  0  0  0  0  0  0  0  0
    1.8567   -0.9940    0.0000 C   0  0  0  0  0  0  0  0  0  0  0  0
    1.8567   -1.8190    0.0000 C   0  0  0  0  0  0  0  0  0  0  0  0
    2.5711   -2.2315    0.0000 O   0  0  0  0  0  0  0  0  0  0  0  0
    1.1422   -2.2315    0.0000 O   0  0  0  0  0  0  0  0  0  0  0  0
    0.4277   -1.8190    0.0000 C   0  0  0  0  0  0  0  0  0  0  0  0
   -0.2868   -2.2315    0.0000 C   0  0  0  0  0  0  0  0  0  0  0  0
    1.7256    0.0019    0.0000 H   0  0  0  0  0  0  0  0  0  0  0  0
   -1.7157   -0.5815    0.0000 H   0  0  0  0  0  0  0  0  0  0  0  0
    2.5711   -0.5815    0.0000 H   0  0  0  0  0  0  0  0  0  0  0  0
   -0.2868   -3.0565    0.0000 H   0  0  0  0  0  0  0  0  0  0  0  0
   -2.5407   -3.0565    0.0000 H   0  0  0  0  0  0  0  0  0  0  0  0
   -1.7157   -3.8815    0.0000 H   0  0  0  0  0  0  0  0  0  0  0  0
   -0.8907   -3.0565    0.0000 H   0  0  0  0  0  0  0  0  0  0  0  0
    0.8402   -0.0585    0.0000 H   0  0  0  0  0  0  0  0  0  0  0  0
    1.1422    1.0685    0.0000 H   0  0  0  0  0  0  0  0  0  0  0  0
    0.0152    1.3705    0.0000 H   0  0  0  0  0  0  0  0  0  0  0  0
  1  2  1  0  0  0  0
  2  3  1  0  0  0  0
  3  4  4  0  0  0  0
  3 15  4  0  0  0  0
  4  5  4  0  0  0  0
  5  6  1  0  0  0  0
  5  8  4  0  0  0  0
  6  7  1  0  0  0  0
  8  9  1  0  0  0  0
  8 14  4  0  0  0  0
  9 10  2  0  0  0  0
 10 11  1  0  0  0  0
 11 12  2  0  0  0  0
 11 13  1  0  0  0  0
 13 14  1  0  0  0  0
 14 15  4  0  0  0  0
  9 16  1  0  0  0  0
  4 17  1  0  0  0  0
 10 18  1  0  0  0  0
 15 19  1  0  0  0  0
  1 20  1  0  0  0  0
  1 21  1  0  0  0  0
  1 22  1  0  0  0  0
  7 23  1  0  0  0  0
  7 24  1  0  0  0  0
  7 25  1  0  0  0  0
M  END
> <Molecule ChEMBL ID>
CHEMBL481049

> <Class(50)>
1

> <Class(80)>
1

>  <salt>
false

>  <StandardizerResult>
Tautomerize (ID: Tautomerize)
Neutralize (ID: Neutralize)
Aromatize (ID: Aromatize)
Wedge Clean (ID: Wedge Clean)
Clean 2D (ID: Clean2D)

$$$$
CHEMBL311909
  Mrv2010 08032110442D          

 88 93  0  0  0  0            999 V2000
    2.5622   -2.3208    0.0000 C   0  0  0  0  0  0  0  0  0  0  0  0
    3.2767   -2.7333    0.0000 O   0  0  0  0  0  0  0  0  0  0  0  0
    3.2767   -3.5583    0.0000 C   0  0  0  0  0  0  0  0  0  0  0  0
    2.5622   -3.9708    0.0000 C   0  0  0  0  0  0  0  0  0  0  0  0
    2.5622   -4.7958    0.0000 C   0  0  0  0  0  0  0  0  0  0  0  0
    1.8477   -5.2083    0.0000 C   0  0  0  0  0  0  0  0  0  0  0  0
    1.1333   -4.7958    0.0000 C   0  0  0  0  0  0  0  0  0  0  0  0
    0.4188   -5.2083    0.0000 C   0  0  0  0  0  0  0  0  0  0  0  0
    0.4188   -6.0333    0.0000 C   0  0  0  0  0  0  0  0  0  0  0  0
   -0.2957   -6.4458    0.0000 N   0  0  0  0  0  0  0  0  0  0  0  0
   -1.0102   -6.0333    0.0000 N   0  0  0  0  0  0  0  0  0  0  0  0
   -1.0102   -5.2083    0.0000 C   0  0  0  0  0  0  0  0  0  0  0  0
   -0.2957   -4.7958    0.0000 C   0  0  0  0  0  0  0  0  0  0  0  0
   -0.2957   -3.9708    0.0000 C   0  0  0  0  0  0  0  0  0  0  0  0
   -1.0102   -3.5583    0.0000 C   0  0  0  0  0  0  0  0  0  0  0  0
   -1.0102   -2.7333    0.0000 C   0  0  0  0  0  0  0  0  0  0  0  0
   -0.2957   -2.3208    0.0000 S   0  0  0  0  0  0  0  0  0  0  0  0
    0.4188   -1.9083    0.0000 O   0  0  0  0  0  0  0  0  0  0  0  0
   -0.7082   -1.6064    0.0000 O   0  0  0  0  0  0  0  0  0  0  0  0
    0.1168   -3.0353    0.0000 O   0  0  0  0  0  0  0  0  0  0  0  0
   -1.7246   -2.3208    0.0000 C   0  0  0  0  0  0  0  0  0  0  0  0
   -2.4391   -2.7333    0.0000 C   0  0  0  0  0  0  0  0  0  0  0  0
   -3.1536   -2.3208    0.0000 S   0  0  0  0  0  0  0  0  0  0  0  0
   -3.8680   -1.9083    0.0000 O   0  0  0  0  0  0  0  0  0  0  0  0
   -2.7411   -1.6064    0.0000 O   0  0  0  0  0  0  0  0  0  0  0  0
   -3.5661   -3.0353    0.0000 O   0  0  0  0  0  0  0  0  0  0  0  0
   -2.4391   -3.5583    0.0000 C   0  0  0  0  0  0  0  0  0  0  0  0
   -3.1536   -3.9708    0.0000 N   0  0  0  0  0  0  0  0  0  0  0  0
   -1.7246   -3.9708    0.0000 C   0  0  0  0  0  0  0  0  0  0  0  0
   -1.7246   -4.7958    0.0000 C   0  0  0  0  0  0  0  0  0  0  0  0
   -2.4391   -5.2083    0.0000 O   0  0  0  0  0  0  0  0  0  0  0  0
    1.1333   -6.4458    0.0000 C   0  0  0  0  0  0  0  0  0  0  0  0
    1.1333   -7.2708    0.0000 O   0  0  0  0  0  0  0  0  0  0  0  0
    1.8477   -7.6833    0.0000 C   0  0  0  0  0  0  0  0  0  0  0  0
    1.8477   -6.0333    0.0000 C   0  0  0  0  0  0  0  0  0  0  0  0
    3.2767   -5.2083    0.0000 C   0  0  0  0  0  0  0  0  0  0  0  0
    3.9911   -4.7958    0.0000 C   0  0  0  0  0  0  0  0  0  0  0  0
    3.9911   -3.9708    0.0000 C   0  0  0  0  0  0  0  0  0  0  0  0
    4.7056   -3.5583    0.0000 N   0  0  0  0  0  0  0  0  0  0  0  0
    5.4201   -3.9708    0.0000 N   0  0  0  0  0  0  0  0  0  0  0  0
    6.1346   -3.5583    0.0000 C   0  0  0  0  0  0  0  0  0  0  0  0
    6.1346   -2.7333    0.0000 C   0  0  0  0  0  0  0  0  0  0  0  0
    6.8490   -2.3208    0.0000 C   0  0  0  0  0  0  0  0  0  0  0  0
    7.5635   -2.7333    0.0000 C   0  0  0  0  0  0  0  0  0  0  0  0
    8.2780   -2.3208    0.0000 C   0  0  0  0  0  0  0  0  0  0  0  0
    8.2780   -1.4958    0.0000 S   0  0  0  0  0  0  0  0  0  0  0  0
    7.4530   -1.4958    0.0000 O   0  0  0  0  0  0  0  0  0  0  0  0
    8.2780   -0.6708    0.0000 O   0  0  0  0  0  0  0  0  0  0  0  0
    9.1030   -1.4958    0.0000 O   0  0  0  0  0  0  0  0  0  0  0  0
    8.9924   -2.7333    0.0000 C   0  0  0  0  0  0  0  0  0  0  0  0
    8.9924   -3.5583    0.0000 C   0  0  0  0  0  0  0  0  0  0  0  0
    9.7069   -3.9708    0.0000 S   0  0  0  0  0  0  0  0  0  0  0  0
   10.1194   -3.2564    0.0000 O   0  0  0  0  0  0  0  0  0  0  0  0
   10.4214   -4.3833    0.0000 O   0  0  0  0  0  0  0  0  0  0  0  0
    9.2944   -4.6853    0.0000 O   0  0  0  0  0  0  0  0  0  0  0  0
    8.2780   -3.9708    0.0000 C   0  0  0  0  0  0  0  0  0  0  0  0
    8.2780   -4.7958    0.0000 N   0  0  0  0  0  0  0  0  0  0  0  0
    7.5635   -3.5583    0.0000 C   0  0  0  0  0  0  0  0  0  0  0  0
    6.8490   -3.9708    0.0000 C   0  0  0  0  0  0  0  0  0  0  0  0
    6.8490   -4.7958    0.0000 O   0  0  0  0  0  0  0  0  0  0  0  0
    0.1168   -3.2564    0.0000 H   0  0  0  0  0  0  0  0  0  0  0  0
   -3.8680   -3.5583    0.0000 H   0  0  0  0  0  0  0  0  0  0  0  0
   -3.1536   -4.7958    0.0000 H   0  0  0  0  0  0  0  0  0  0  0  0
   -4.3911   -3.0353    0.0000 H   0  0  0  0  0  0  0  0  0  0  0  0
    5.4201   -2.3208    0.0000 H   0  0  0  0  0  0  0  0  0  0  0  0
    7.5407   -5.1661    0.0000 H   0  0  0  0  0  0  0  0  0  0  0  0
    8.3259   -5.6195    0.0000 H   0  0  0  0  0  0  0  0  0  0  0  0
    3.2767   -6.0333    0.0000 H   0  0  0  0  0  0  0  0  0  0  0  0
   -0.2957   -5.6208    0.0000 H   0  0  0  0  0  0  0  0  0  0  0  0
    0.9137   -2.8218    0.0000 H   0  0  0  0  0  0  0  0  0  0  0  0
   -1.7246   -1.4958    0.0000 H   0  0  0  0  0  0  0  0  0  0  0  0
    1.1333   -3.9708    0.0000 H   0  0  0  0  0  0  0  0  0  0  0  0
    2.5622   -6.4458    0.0000 H   0  0  0  0  0  0  0  0  0  0  0  0
    9.7546   -3.0491    0.0000 H   0  0  0  0  0  0  0  0  0  0  0  0
    0.4188   -4.3833    0.0000 H   0  0  0  0  0  0  0  0  0  0  0  0
    6.8490   -1.4958    0.0000 H   0  0  0  0  0  0  0  0  0  0  0  0
    1.4352   -8.3978    0.0000 H   0  0  0  0  0  0  0  0  0  0  0  0
    2.5622   -8.0958    0.0000 H   0  0  0  0  0  0  0  0  0  0  0  0
    2.2602   -6.9689    0.0000 H   0  0  0  0  0  0  0  0  0  0  0  0
    4.7056   -5.2083    0.0000 H   0  0  0  0  0  0  0  0  0  0  0  0
    8.4694   -4.6853    0.0000 H   0  0  0  0  0  0  0  0  0  0  0  0
    2.9747   -1.6064    0.0000 H   0  0  0  0  0  0  0  0  0  0  0  0
    1.8477   -1.9083    0.0000 H   0  0  0  0  0  0  0  0  0  0  0  0
    2.1497   -3.0353    0.0000 H   0  0  0  0  0  0  0  0  0  0  0  0
    1.8477   -3.5583    0.0000 H   0  0  0  0  0  0  0  0  0  0  0  0
    4.7056   -2.7333    0.0000 H   0  0  0  0  0  0  0  0  0  0  0  0
   -0.2957   -7.2708    0.0000 H   0  0  0  0  0  0  0  0  0  0  0  0
    9.5155   -2.2103    0.0000 H   0  0  0  0  0  0  0  0  0  0  0  0
  1  2  1  0  0  0  0
  2  3  1  0  0  0  0
  3  4  4  0  0  0  0
  3 38  4  0  0  0  0
  4  5  4  0  0  0  0
  5  6  1  0  0  0  0
  5 36  4  0  0  0  0
  6  7  4  0  0  0  0
  6 35  4  0  0  0  0
  7  8  4  0  0  0  0
  8  9  4  0  0  0  0
  9 10  1  0  0  0  0
  9 32  4  0  0  0  0
 11 10  1  4  0  0  0
 11 12  2  0  0  0  0
 12 13  1  0  0  0  0
 12 30  1  0  0  0  0
 13 14  2  0  0  0  0
 14 15  1  0  0  0  0
 15 16  4  0  0  0  0
 15 29  4  0  0  0  0
 16 17  1  0  0  0  0
 16 21  4  0  0  0  0
 17 18  2  0  0  0  0
 17 19  2  0  0  0  0
 17 20  1  0  0  0  0
 21 22  4  0  0  0  0
 22 23  1  0  0  0  0
 22 27  4  0  0  0  0
 23 24  2  0  0  0  0
 23 25  2  0  0  0  0
 23 26  1  0  0  0  0
 27 28  1  0  0  0  0
 27 29  4  0  0  0  0
 29 30  1  0  0  0  0
 30 31  2  0  0  0  0
 32 33  1  0  0  0  0
 32 35  4  0  0  0  0
 33 34  1  0  0  0  0
 36 37  4  0  0  0  0
 37 38  4  0  0  0  0
 38 39  1  0  0  0  0
 40 39  1  4  0  0  0
 40 41  2  0  0  0  0
 41 42  1  0  0  0  0
 41 59  1  0  0  0  0
 42 43  2  0  0  0  0
 43 44  1  0  0  0  0
 44 45  4  0  0  0  0
 44 58  4  0  0  0  0
 45 46  1  0  0  0  0
 45 50  4  0  0  0  0
 46 47  2  0  0  0  0
 46 48  2  0  0  0  0
 46 49  1  0  0  0  0
 50 51  4  0  0  0  0
 51 52  1  0  0  0  0
 51 56  4  0  0  0  0
 52 53  2  0  0  0  0
 52 54  2  0  0  0  0
 52 55  1  0  0  0  0
 56 57  1  0  0  0  0
 56 58  4  0  0  0  0
 58 59  1  0  0  0  0
 59 60  2  0  0  0  0
 14 61  1  0  0  0  0
 28 62  1  0  0  0  0
 28 63  1  0  0  0  0
 26 64  1  0  0  0  0
 42 65  1  0  0  0  0
 57 66  1  0  0  0  0
 57 67  1  0  0  0  0
 36 68  1  0  0  0  0
  8 69  1  0  0  0  0
 20 70  1  0  0  0  0
 21 71  1  0  0  0  0
  7 72  1  0  0  0  0
 35 73  1  0  0  0  0
 50 74  1  0  0  0  0
 13 75  1  0  0  0  0
 43 76  1  0  0  0  0
 34 77  1  0  0  0  0
 34 78  1  0  0  0  0
 34 79  1  0  0  0  0
 37 80  1  0  0  0  0
 55 81  1  0  0  0  0
  1 82  1  0  0  0  0
  1 83  1  0  0  0  0
  1 84  1  0  0  0  0
  4 85  1  0  0  0  0
 39 86  1  0  0  0  0
 10 87  1  0  0  0  0
 49 88  1  0  0  0  0
M  END
> <Molecule ChEMBL ID>
CHEMBL311909

> <Class(50)>
1

> <Class(80)>
1

>  <salt>
false

>  <StandardizerResult>
Tautomerize (ID: Tautomerize)
Neutralize (ID: Neutralize)
Aromatize (ID: Aromatize)
Wedge Clean (ID: Wedge Clean)
Clean 2D (ID: Clean2D)

$$$$
CHEMBL1380480
  Mrv2010 08032110442D          

 32 33  0  0  0  0            999 V2000
   -1.9788    2.1313    0.0000 C   0  0  0  0  0  0  0  0  0  0  0  0
   -1.2644    1.7188    0.0000 O   0  0  0  0  0  0  0  0  0  0  0  0
   -1.2644    0.8938    0.0000 C   0  0  0  0  0  0  0  0  0  0  0  0
   -0.5499    0.4813    0.0000 C   0  0  0  0  0  0  0  0  0  0  0  0
   -0.5499   -0.3437    0.0000 C   0  0  0  0  0  0  0  0  0  0  0  0
    0.1646   -0.7562    0.0000 C   0  0  0  0  0  0  0  0  0  0  0  0
    0.8790   -0.3437    0.0000 S   0  0  0  0  0  0  0  0  0  0  0  0
    0.1646   -1.5812    0.0000 N   0  0  0  0  0  0  0  0  0  0  0  0
    0.8790   -1.9937    0.0000 C   0  0  0  0  0  0  0  0  0  0  0  0
    0.8790   -2.8187    0.0000 C   0  0  0  0  0  0  0  0  0  0  0  0
    0.1646   -3.2312    0.0000 O   0  0  0  0  0  0  0  0  0  0  0  0
   -0.5499   -2.8187    0.0000 C   0  0  0  0  0  0  0  0  0  0  0  0
   -0.5499   -1.9937    0.0000 C   0  0  0  0  0  0  0  0  0  0  0  0
   -1.2644   -0.7562    0.0000 C   0  0  0  0  0  0  0  0  0  0  0  0
   -1.9788   -0.3437    0.0000 C   0  0  0  0  0  0  0  0  0  0  0  0
   -1.9788    0.4813    0.0000 C   0  0  0  0  0  0  0  0  0  0  0  0
   -2.6933    0.8938    0.0000 O   0  0  0  0  0  0  0  0  0  0  0  0
   -1.8703   -1.3160    0.0000 H   0  0  0  0  0  0  0  0  0  0  0  0
    0.1646    0.8938    0.0000 H   0  0  0  0  0  0  0  0  0  0  0  0
   -3.4902    0.6803    0.0000 H   0  0  0  0  0  0  0  0  0  0  0  0
   -1.0032   -1.3044    0.0000 H   0  0  0  0  0  0  0  0  0  0  0  0
   -1.3735   -1.9457    0.0000 H   0  0  0  0  0  0  0  0  0  0  0  0
   -1.3735   -2.8667    0.0000 H   0  0  0  0  0  0  0  0  0  0  0  0
   -1.0032   -3.5080    0.0000 H   0  0  0  0  0  0  0  0  0  0  0  0
    1.3324   -3.5080    0.0000 H   0  0  0  0  0  0  0  0  0  0  0  0
    1.7027   -2.8667    0.0000 H   0  0  0  0  0  0  0  0  0  0  0  0
   -1.5663    2.8458    0.0000 H   0  0  0  0  0  0  0  0  0  0  0  0
   -2.6933    2.5438    0.0000 H   0  0  0  0  0  0  0  0  0  0  0  0
   -2.3913    1.4168    0.0000 H   0  0  0  0  0  0  0  0  0  0  0  0
   -2.6933   -0.7562    0.0000 H   0  0  0  0  0  0  0  0  0  0  0  0
    1.7027   -1.9457    0.0000 H   0  0  0  0  0  0  0  0  0  0  0  0
    1.3324   -1.3044    0.0000 H   0  0  0  0  0  0  0  0  0  0  0  0
  1  2  1  0  0  0  0
  2  3  1  0  0  0  0
  3  4  4  0  0  0  0
  3 16  4  0  0  0  0
  4  5  4  0  0  0  0
  5  6  1  0  0  0  0
  5 14  4  0  0  0  0
  6  7  2  0  0  0  0
  6  8  1  0  0  0  0
  8  9  1  0  0  0  0
  8 13  1  0  0  0  0
  9 10  1  0  0  0  0
 10 11  1  0  0  0  0
 11 12  1  0  0  0  0
 12 13  1  0  0  0  0
 14 15  4  0  0  0  0
 15 16  4  0  0  0  0
 16 17  1  0  0  0  0
 14 18  1  0  0  0  0
  4 19  1  0  0  0  0
 17 20  1  0  0  0  0
 13 21  1  0  0  0  0
 13 22  1  0  0  0  0
 12 23  1  0  0  0  0
 12 24  1  0  0  0  0
 10 25  1  0  0  0  0
 10 26  1  0  0  0  0
  1 27  1  0  0  0  0
  1 28  1  0  0  0  0
  1 29  1  0  0  0  0
 15 30  1  0  0  0  0
  9 31  1  0  0  0  0
  9 32  1  0  0  0  0
M  END
> <Molecule ChEMBL ID>
CHEMBL1380480

> <Class(50)>
1

> <Class(80)>
1

>  <salt>
false

>  <StandardizerResult>
Tautomerize (ID: Tautomerize)
Neutralize (ID: Neutralize)
Aromatize (ID: Aromatize)
Wedge Clean (ID: Wedge Clean)
Clean 2D (ID: Clean2D)

$$$$
CHEMBL2023898
  Mrv2010 08032110442D          

104109  0  0  1  0            999 V2000
    1.8094   -3.6782    0.0000 C   0  0  0  0  0  0  0  0  0  0  0  0
    1.1963   -3.1262    0.0000 O   0  0  0  0  0  0  0  0  0  0  0  0
    0.4117   -3.3811    0.0000 C   0  0  0  0  0  0  0  0  0  0  0  0
    0.2401   -4.1881    0.0000 O   0  0  0  0  0  0  0  0  0  0  0  0
   -0.2014   -2.8291    0.0000 N   0  0  0  0  0  0  0  0  0  0  0  0
   -0.9861   -3.0840    0.0000 C   0  0  0  0  0  0  0  0  0  0  0  0
   -1.5992   -2.5320    0.0000 C   0  0  0  0  0  0  0  0  0  0  0  0
   -1.4276   -1.7250    0.0000 O   0  0  0  0  0  0  0  0  0  0  0  0
   -2.3838   -2.7869    0.0000 N   0  0  0  0  0  0  0  0  0  0  0  0
   -2.6387   -3.5715    0.0000 C   0  0  0  0  0  0  0  0  0  0  0  0
   -3.4637   -3.5715    0.0000 C   0  0  0  0  0  0  0  0  0  0  0  0
   -3.7186   -2.7869    0.0000 C   0  0  0  0  0  0  0  0  0  0  0  0
   -3.0512   -2.3020    0.0000 C   0  0  0  0  0  0  0  0  0  0  0  0
   -3.0512   -1.4770    0.0000 C   0  0  0  0  0  0  0  0  0  0  0  0
   -3.7186   -0.9921    0.0000 N   0  0  0  0  0  0  0  0  0  0  0  0
   -3.4637   -0.2075    0.0000 C   0  0  0  0  0  0  0  0  0  0  0  0
   -2.6387   -0.2075    0.0000 C   0  0  0  0  0  0  0  0  0  0  0  0
   -2.1538    0.4600    0.0000 C   0  0  0  0  0  0  0  0  0  0  0  0
   -2.4893    1.2137    0.0000 C   0  0  0  0  0  0  0  0  0  0  0  0
   -2.0044    1.8811    0.0000 C   0  0  0  0  0  0  0  0  0  0  0  0
   -1.1839    1.7949    0.0000 C   0  0  0  0  0  0  0  0  0  0  0  0
   -0.6990    2.4623    0.0000 C   0  0  0  0  0  0  0  0  0  0  0  0
   -1.0346    3.2160    0.0000 C   0  0  0  0  0  0  0  0  0  0  0  0
   -0.5497    3.8834    0.0000 C   0  0  0  0  0  0  0  0  0  0  0  0
    0.2708    3.7972    0.0000 C   0  0  0  0  0  0  0  0  0  0  0  0
    0.7557    4.4646    0.0000 C   0  0  0  0  0  0  0  0  0  0  0  0
    0.5008    5.2492    0.0000 C   0  0  0  0  0  0  0  0  0  0  0  0
    1.1682    5.7342    0.0000 N   0  0  0  0  0  0  0  0  0  0  0  0
    1.8357    5.2492    0.0000 C   0  0  0  0  0  0  0  0  0  0  0  0
    2.6203    5.5042    0.0000 C   0  0  0  0  0  0  0  0  0  0  0  0
    2.8752    6.2888    0.0000 C   0  0  0  0  0  0  0  0  0  0  0  0
    3.7002    6.2888    0.0000 C   0  0  0  0  0  0  0  0  0  0  0  0
    3.9552    5.5042    0.0000 C   0  0  0  0  0  0  0  0  0  0  0  0
    3.2877    5.0193    0.0000 N   0  0  0  0  0  0  0  0  0  0  0  0
    3.2877    4.1943    0.0000 C   0  0  0  0  0  0  0  0  0  0  0  0
    2.5733    3.7818    0.0000 O   0  0  0  0  0  0  0  0  0  0  0  0
    4.0022    3.7818    0.0000 C   0  0  0  0  0  0  0  0  0  0  0  0
    4.0022    2.9568    0.0000 N   0  0  0  0  0  0  0  0  0  0  0  0
    4.7167    2.5443    0.0000 C   0  0  0  0  0  0  0  0  0  0  0  0
    5.4312    2.9568    0.0000 O   0  0  0  0  0  0  0  0  0  0  0  0
    4.7167    1.7193    0.0000 O   0  0  0  0  0  0  0  0  0  0  0  0
    4.0022    1.3068    0.0000 C   0  0  0  0  0  0  0  0  0  0  0  0
    4.7167    4.1943    0.0000 C   0  0  0  0  0  0  0  0  0  0  0  0
    4.7167    5.0193    0.0000 C   0  0  0  0  0  0  0  0  0  0  0  0
    5.4312    3.7818    0.0000 C   0  0  0  0  0  0  0  0  0  0  0  0
    1.5807    4.4646    0.0000 N   0  0  0  0  0  0  0  0  0  0  0  0
    0.6064    3.0435    0.0000 C   0  0  0  0  0  0  0  0  0  0  0  0
    0.1215    2.3761    0.0000 C   0  0  0  0  0  0  0  0  0  0  0  0
   -0.8484    1.0412    0.0000 C   0  0  0  0  0  0  0  0  0  0  0  0
   -1.3333    0.3737    0.0000 C   0  0  0  0  0  0  0  0  0  0  0  0
   -2.3838   -0.9921    0.0000 N   0  0  0  0  0  0  0  0  0  0  0  0
   -1.1576   -3.8910    0.0000 C   0  0  0  0  0  0  0  0  0  0  0  0
   -0.5445   -4.4430    0.0000 C   0  0  0  0  0  0  0  0  0  0  0  0
   -1.9422   -4.1459    0.0000 C   0  0  0  0  0  0  0  0  0  0  0  0
    6.0153    3.1992    0.0000 H   0  0  0  0  0  0  0  0  0  0  0  0
    6.2562    3.7840    0.0000 H   0  0  0  0  0  0  0  0  0  0  0  0
    6.0121    4.3675    0.0000 H   0  0  0  0  0  0  0  0  0  0  0  0
    0.4570    1.6224    0.0000 H   0  0  0  0  0  0  0  0  0  0  0  0
   -2.9176   -4.3480    0.0000 H   0  0  0  0  0  0  0  0  0  0  0  0
   -1.8466   -3.3408    0.0000 H   0  0  0  0  0  0  0  0  0  0  0  0
    4.4418    6.6505    0.0000 H   0  0  0  0  0  0  0  0  0  0  0  0
    3.8151    7.1058    0.0000 H   0  0  0  0  0  0  0  0  0  0  0  0
   -0.8852    4.6371    0.0000 H   0  0  0  0  0  0  0  0  0  0  0  0
   -0.2838    5.5042    0.0000 H   0  0  0  0  0  0  0  0  0  0  0  0
    2.7604    7.1058    0.0000 H   0  0  0  0  0  0  0  0  0  0  0  0
    2.1337    6.6505    0.0000 H   0  0  0  0  0  0  0  0  0  0  0  0
   -1.8551    3.3022    0.0000 H   0  0  0  0  0  0  0  0  0  0  0  0
    4.6075    6.0093    0.0000 H   0  0  0  0  0  0  0  0  0  0  0  0
    3.9805    4.6796    0.0000 H   0  0  0  0  0  0  0  0  0  0  0  0
    3.5897    2.0212    0.0000 H   0  0  0  0  0  0  0  0  0  0  0  0
    3.2877    0.8943    0.0000 H   0  0  0  0  0  0  0  0  0  0  0  0
    4.4147    0.5923    0.0000 H   0  0  0  0  0  0  0  0  0  0  0  0
   -2.3400    2.6348    0.0000 H   0  0  0  0  0  0  0  0  0  0  0  0
    1.1682    6.5592    0.0000 H   0  0  0  0  0  0  0  0  0  0  0  0
   -2.7642   -4.2159    0.0000 H   0  0  0  0  0  0  0  0  0  0  0  0
   -2.4808   -4.7709    0.0000 H   0  0  0  0  0  0  0  0  0  0  0  0
   -1.8901   -4.9693    0.0000 H   0  0  0  0  0  0  0  0  0  0  0  0
    1.4269    2.9573    0.0000 H   0  0  0  0  0  0  0  0  0  0  0  0
   -2.3161   -1.9275    0.0000 H   0  0  0  0  0  0  0  0  0  0  0  0
    2.4913    4.6893    0.0000 H   0  0  0  0  0  0  0  0  0  0  0  0
    1.2573   -4.2913    0.0000 H   0  0  0  0  0  0  0  0  0  0  0  0
    2.4225   -4.2302    0.0000 H   0  0  0  0  0  0  0  0  0  0  0  0
    2.3614   -3.0651    0.0000 H   0  0  0  0  0  0  0  0  0  0  0  0
   -4.2917   -2.1935    0.0000 H   0  0  0  0  0  0  0  0  0  0  0  0
   -4.5311   -2.9302    0.0000 H   0  0  0  0  0  0  0  0  0  0  0  0
   -1.3291   -4.6980    0.0000 H   0  0  0  0  0  0  0  0  0  0  0  0
   -0.7160   -5.2500    0.0000 H   0  0  0  0  0  0  0  0  0  0  0  0
    0.0686   -4.9951    0.0000 H   0  0  0  0  0  0  0  0  0  0  0  0
   -4.2860   -3.6386    0.0000 H   0  0  0  0  0  0  0  0  0  0  0  0
   -4.0108   -4.1891    0.0000 H   0  0  0  0  0  0  0  0  0  0  0  0
   -3.9486    0.4600    0.0000 H   0  0  0  0  0  0  0  0  0  0  0  0
   -3.3098    1.2999    0.0000 H   0  0  0  0  0  0  0  0  0  0  0  0
   -0.8145   -2.2770    0.0000 H   0  0  0  0  0  0  0  0  0  0  0  0
    3.2877    3.3693    0.0000 H   0  0  0  0  0  0  0  0  0  0  0  0
    5.4266    4.5990    0.0000 H   0  0  0  0  0  0  0  0  0  0  0  0
    5.4400    5.4161    0.0000 H   0  0  0  0  0  0  0  0  0  0  0  0
    4.7436    5.8438    0.0000 H   0  0  0  0  0  0  0  0  0  0  0  0
   -0.0299   -2.0221    0.0000 H   0  0  0  0  0  0  0  0  0  0  0  0
    4.7167    3.3693    0.0000 H   0  0  0  0  0  0  0  0  0  0  0  0
   -4.5033   -1.2470    0.0000 H   0  0  0  0  0  0  0  0  0  0  0  0
   -0.9977   -0.3799    0.0000 H   0  0  0  0  0  0  0  0  0  0  0  0
   -0.0279    0.9549    0.0000 H   0  0  0  0  0  0  0  0  0  0  0  0
   -0.3730   -3.6361    0.0000 H   0  0  0  0  0  0  0  0  0  0  0  0
    3.5897    2.2423    0.0000 H   0  0  0  0  0  0  0  0  0  0  0  0
  1  2  1  0  0  0  0
  2  3  1  0  0  0  0
  3  4  2  0  0  0  0
  3  5  1  0  0  0  0
  5  6  1  0  0  0  0
  6  7  1  0  0  0  0
  6 52  1  0  0  0  0
  7  8  2  0  0  0  0
  7  9  1  0  0  0  0
  9 10  1  0  0  0  0
  9 13  1  0  0  0  0
 10 11  1  0  0  0  0
 11 12  1  0  0  0  0
 12 13  1  0  0  0  0
 13 14  1  0  0  0  0
 14 15  4  0  0  0  0
 14 51  4  0  0  0  0
 15 16  4  0  0  0  0
 16 17  4  0  0  0  0
 17 18  1  0  0  0  0
 17 51  4  0  0  0  0
 18 19  4  0  0  0  0
 18 50  4  0  0  0  0
 19 20  4  0  0  0  0
 20 21  4  0  0  0  0
 21 22  1  0  0  0  0
 21 49  4  0  0  0  0
 22 23  4  0  0  0  0
 22 48  4  0  0  0  0
 23 24  4  0  0  0  0
 24 25  4  0  0  0  0
 25 26  1  0  0  0  0
 25 47  4  0  0  0  0
 26 27  4  0  0  0  0
 26 46  4  0  0  0  0
 27 28  4  0  0  0  0
 28 29  4  0  0  0  0
 29 30  1  0  0  0  0
 29 46  4  0  0  0  0
 30 31  1  0  0  0  0
 30 34  1  0  0  0  0
 31 32  1  0  0  0  0
 32 33  1  0  0  0  0
 33 34  1  0  0  0  0
 34 35  1  0  0  0  0
 35 36  2  0  0  0  0
 35 37  1  0  0  0  0
 37 38  1  0  0  0  0
 37 43  1  0  0  0  0
 38 39  1  0  0  0  0
 39 40  2  0  0  0  0
 39 41  1  0  0  0  0
 41 42  1  0  0  0  0
 43 44  1  0  0  0  0
 43 45  1  0  0  0  0
 47 48  4  0  0  0  0
 49 50  4  0  0  0  0
 52 53  1  0  0  0  0
 52 54  1  0  0  0  0
 45 55  1  0  0  0  0
 45 56  1  0  0  0  0
 45 57  1  0  0  0  0
 48 58  1  0  0  0  0
 10 59  1  0  0  0  0
 10 60  1  0  0  0  0
 32 61  1  0  0  0  0
 32 62  1  0  0  0  0
 24 63  1  0  0  0  0
 27 64  1  0  0  0  0
 31 65  1  0  0  0  0
 31 66  1  0  0  0  0
 23 67  1  0  0  0  0
 33 68  1  0  0  0  0
 33 69  1  0  0  0  0
 42 70  1  0  0  0  0
 42 71  1  0  0  0  0
 42 72  1  0  0  0  0
 20 73  1  0  0  0  0
 28 74  1  0  0  0  0
 54 75  1  0  0  0  0
 54 76  1  0  0  0  0
 54 77  1  0  0  0  0
 47 78  1  0  0  0  0
 13 79  1  0  0  0  0
 30 80  1  0  0  0  0
  1 81  1  0  0  0  0
  1 82  1  0  0  0  0
  1 83  1  0  0  0  0
 12 84  1  0  0  0  0
 12 85  1  0  0  0  0
 53 86  1  0  0  0  0
 53 87  1  0  0  0  0
 53 88  1  0  0  0  0
 11 89  1  0  0  0  0
 11 90  1  0  0  0  0
 16 91  1  0  0  0  0
 19 92  1  0  0  0  0
  6 93  1  0  0  0  0
 37 94  1  0  0  0  0
 44 95  1  0  0  0  0
 44 96  1  0  0  0  0
 44 97  1  0  0  0  0
  5 98  1  0  0  0  0
 43 99  1  0  0  0  0
 15100  1  0  0  0  0
 50101  1  0  0  0  0
 49102  1  0  0  0  0
 52103  1  0  0  0  0
 38104  1  0  0  0  0
M  END
> <Molecule ChEMBL ID>
CHEMBL2023898

> <Class(50)>
1

> <Class(80)>
1

>  <salt>
false

>  <StandardizerResult>
Tautomerize (ID: Tautomerize)
Transform (ID: Transform NO2 (1))
Aromatize (ID: Aromatize)
Wedge Clean (ID: Wedge Clean)
Clean 2D (ID: Clean2D)

$$$$
CHEMBL3963349
  Mrv2010 08032110442D          

 88 88  0  0  1  0            999 V2000
    2.6417    4.2989    0.0000 C   0  0  0  0  0  0  0  0  0  0  0  0
    2.6417    3.4739    0.0000 O   0  0  0  0  0  0  0  0  0  0  0  0
    3.3562    3.0614    0.0000 C   0  0  0  0  0  0  0  0  0  0  0  0
    4.0706    3.4739    0.0000 O   0  0  0  0  0  0  0  0  0  0  0  0
    3.3562    2.2364    0.0000 C   0  0  0  0  0  0  0  0  0  0  0  0
    4.0706    1.8239    0.0000 C   0  0  0  0  0  0  0  0  0  0  0  0
    4.0706    0.9989    0.0000 C   0  0  1  0  0  0  0  0  0  0  0  0
    3.3562    0.5864    0.0000 N   0  0  0  0  0  0  0  0  0  0  0  0
    2.6417    0.9989    0.0000 C   0  0  0  0  0  0  0  0  0  0  0  0
    2.6417    1.8239    0.0000 O   0  0  0  0  0  0  0  0  0  0  0  0
    1.9272    0.5864    0.0000 C   0  0  1  0  0  0  0  0  0  0  0  0
    1.9272   -0.2386    0.0000 C   0  0  0  0  0  0  0  0  0  0  0  0
    2.6417   -0.6511    0.0000 C   0  0  0  0  0  0  0  0  0  0  0  0
    3.3562   -0.2386    0.0000 O   0  0  0  0  0  0  0  0  0  0  0  0
    2.6417   -1.4761    0.0000 O   0  0  0  0  0  0  0  0  0  0  0  0
    1.9272   -1.8886    0.0000 C   0  0  0  0  0  0  0  0  0  0  0  0
    1.2128    0.9989    0.0000 N   0  0  0  0  0  0  0  0  0  0  0  0
    0.4983    0.5864    0.0000 C   0  0  0  0  0  0  0  0  0  0  0  0
    0.4983   -0.2386    0.0000 O   0  0  0  0  0  0  0  0  0  0  0  0
   -0.2162    0.9989    0.0000 O   0  0  0  0  0  0  0  0  0  0  0  0
   -0.9307    0.5864    0.0000 C   0  0  0  0  0  0  0  0  0  0  0  0
   -1.6451    0.9989    0.0000 C   0  0  0  0  0  0  0  0  0  0  0  0
   -2.3596    0.5864    0.0000 C   0  0  0  0  0  0  0  0  0  0  0  0
   -3.0741    0.9989    0.0000 C   0  0  0  0  0  0  0  0  0  0  0  0
   -3.0741    1.8239    0.0000 C   0  0  0  0  0  0  0  0  0  0  0  0
   -2.3596    2.2364    0.0000 C   0  0  0  0  0  0  0  0  0  0  0  0
   -1.6451    1.8239    0.0000 C   0  0  0  0  0  0  0  0  0  0  0  0
    4.7851    0.5864    0.0000 C   0  0  0  0  0  0  0  0  0  0  0  0
    4.7851   -0.2386    0.0000 O   0  0  0  0  0  0  0  0  0  0  0  0
    5.4996    0.9989    0.0000 N   0  0  0  0  0  0  0  0  0  0  0  0
    6.2141    0.5864    0.0000 C   0  0  1  0  0  0  0  0  0  0  0  0
    6.9285    0.9989    0.0000 C   0  0  0  0  0  0  0  0  0  0  0  0
    6.9285    1.8239    0.0000 O   0  0  0  0  0  0  0  0  0  0  0  0
    7.6430    0.5864    0.0000 N   0  0  0  0  0  0  0  0  0  0  0  0
    8.3575    0.9989    0.0000 C   0  0  1  0  0  0  0  0  0  0  0  0
    9.0719    0.5864    0.0000 C   0  0  0  0  0  0  0  0  0  0  0  0
    9.7864    0.9989    0.0000 C   0  0  0  0  0  0  0  0  0  0  0  0
    9.7864    1.8239    0.0000 O   0  0  0  0  0  0  0  0  0  0  0  0
   10.5009    0.5864    0.0000 O   0  0  0  0  0  0  0  0  0  0  0  0
   11.2154    0.9989    0.0000 C   0  0  0  0  0  0  0  0  0  0  0  0
    8.3575    1.8239    0.0000 C   0  0  0  0  0  0  0  0  0  0  0  0
    9.0719    2.2364    0.0000 O   0  0  0  0  0  0  0  0  0  0  0  0
    7.6430    2.2364    0.0000 C   0  0  0  0  0  0  0  0  0  0  0  0
    7.6430    3.0614    0.0000 F   0  0  0  0  0  0  0  0  0  0  0  0
    6.2141   -0.2386    0.0000 C   0  0  0  0  0  0  0  0  0  0  0  0
    6.9285   -0.6511    0.0000 C   0  0  0  0  0  0  0  0  0  0  0  0
    5.4996   -0.6511    0.0000 C   0  0  0  0  0  0  0  0  0  0  0  0
    8.3575    0.1739    0.0000 H   0  0  0  0  0  0  0  0  0  0  0  0
   11.6279    0.2844    0.0000 H   0  0  0  0  0  0  0  0  0  0  0  0
   11.9298    1.4114    0.0000 H   0  0  0  0  0  0  0  0  0  0  0  0
   10.8029    1.7133    0.0000 H   0  0  0  0  0  0  0  0  0  0  0  0
   -2.3596   -0.2386    0.0000 H   0  0  0  0  0  0  0  0  0  0  0  0
    4.8676   -1.1814    0.0000 H   0  0  0  0  0  0  0  0  0  0  0  0
    5.3563   -1.4636    0.0000 H   0  0  0  0  0  0  0  0  0  0  0  0
    5.4996    0.1739    0.0000 H   0  0  0  0  0  0  0  0  0  0  0  0
   -0.9307    2.2364    0.0000 H   0  0  0  0  0  0  0  0  0  0  0  0
    1.5147   -1.1742    0.0000 H   0  0  0  0  0  0  0  0  0  0  0  0
    1.2128   -2.3011    0.0000 H   0  0  0  0  0  0  0  0  0  0  0  0
    2.3397   -2.6031    0.0000 H   0  0  0  0  0  0  0  0  0  0  0  0
    3.3562    1.4114    0.0000 H   0  0  0  0  0  0  0  0  0  0  0  0
    1.2128    1.8239    0.0000 H   0  0  0  0  0  0  0  0  0  0  0  0
    6.2141    1.4114    0.0000 H   0  0  0  0  0  0  0  0  0  0  0  0
    6.9285    0.1739    0.0000 H   0  0  0  0  0  0  0  0  0  0  0  0
    7.6430   -0.2386    0.0000 H   0  0  0  0  0  0  0  0  0  0  0  0
    5.9711    1.6759    0.0000 H   0  0  0  0  0  0  0  0  0  0  0  0
    9.2152   -0.2261    0.0000 H   0  0  0  0  0  0  0  0  0  0  0  0
    9.7039    0.0561    0.0000 H   0  0  0  0  0  0  0  0  0  0  0  0
    2.6417    0.1739    0.0000 H   0  0  0  0  0  0  0  0  0  0  0  0
    4.0706    0.1739    0.0000 H   0  0  0  0  0  0  0  0  0  0  0  0
    3.4667    4.2989    0.0000 H   0  0  0  0  0  0  0  0  0  0  0  0
    2.6417    5.1239    0.0000 H   0  0  0  0  0  0  0  0  0  0  0  0
    1.8167    4.2989    0.0000 H   0  0  0  0  0  0  0  0  0  0  0  0
   -3.7885    0.5864    0.0000 H   0  0  0  0  0  0  0  0  0  0  0  0
   -2.3596    3.0614    0.0000 H   0  0  0  0  0  0  0  0  0  0  0  0
   -3.7885    2.2364    0.0000 H   0  0  0  0  0  0  0  0  0  0  0  0
    7.6430    1.4114    0.0000 H   0  0  0  0  0  0  0  0  0  0  0  0
    6.9285    2.6489    0.0000 H   0  0  0  0  0  0  0  0  0  0  0  0
    4.8459    1.5417    0.0000 H   0  0  0  0  0  0  0  0  0  0  0  0
    4.8459    2.1060    0.0000 H   0  0  0  0  0  0  0  0  0  0  0  0
    1.1036   -0.2866    0.0000 H   0  0  0  0  0  0  0  0  0  0  0  0
    1.4739   -0.9279    0.0000 H   0  0  0  0  0  0  0  0  0  0  0  0
    2.6417    2.6489    0.0000 H   0  0  0  0  0  0  0  0  0  0  0  0
    4.0706    2.6489    0.0000 H   0  0  0  0  0  0  0  0  0  0  0  0
   -1.3009   -0.1509    0.0000 H   0  0  0  0  0  0  0  0  0  0  0  0
   -0.5604   -0.1509    0.0000 H   0  0  0  0  0  0  0  0  0  0  0  0
    6.2141   -1.0636    0.0000 H   0  0  0  0  0  0  0  0  0  0  0  0
    6.9285   -1.4761    0.0000 H   0  0  0  0  0  0  0  0  0  0  0  0
    7.6430   -1.0636    0.0000 H   0  0  0  0  0  0  0  0  0  0  0  0
  1  2  1  0  0  0  0
  2  3  1  0  0  0  0
  3  4  2  0  0  0  0
  3  5  1  0  0  0  0
  5  6  1  0  0  0  0
  7  6  1  0  0  0  0
  7  8  1  0  0  0  0
  7 28  1  0  0  0  0
  8  9  1  0  0  0  0
  9 10  2  0  0  0  0
 11  9  1  0  0  0  0
 11 12  1  0  0  0  0
 11 17  1  0  0  0  0
 12 13  1  0  0  0  0
 13 14  2  0  0  0  0
 13 15  1  0  0  0  0
 15 16  1  0  0  0  0
 17 18  1  0  0  0  0
 18 19  2  0  0  0  0
 18 20  1  0  0  0  0
 20 21  1  0  0  0  0
 21 22  1  0  0  0  0
 22 23  4  0  0  0  0
 22 27  4  0  0  0  0
 23 24  4  0  0  0  0
 24 25  4  0  0  0  0
 25 26  4  0  0  0  0
 26 27  4  0  0  0  0
 28 29  2  0  0  0  0
 28 30  1  0  0  0  0
 31 30  1  0  0  0  0
 31 32  1  0  0  0  0
 31 45  1  0  0  0  0
 32 33  2  0  0  0  0
 32 34  1  0  0  0  0
 35 34  1  0  0  0  0
 35 36  1  0  0  0  0
 35 41  1  0  0  0  0
 36 37  1  0  0  0  0
 37 38  2  0  0  0  0
 37 39  1  0  0  0  0
 39 40  1  0  0  0  0
 41 42  2  0  0  0  0
 41 43  1  0  0  0  0
 43 44  1  0  0  0  0
 45 46  1  0  0  0  0
 45 47  1  0  0  0  0
 35 48  1  1  0  0  0
 40 49  1  0  0  0  0
 40 50  1  0  0  0  0
 40 51  1  0  0  0  0
 23 52  1  0  0  0  0
 47 53  1  0  0  0  0
 47 54  1  0  0  0  0
 47 55  1  0  0  0  0
 27 56  1  0  0  0  0
 16 57  1  0  0  0  0
 16 58  1  0  0  0  0
 16 59  1  0  0  0  0
  7 60  1  1  0  0  0
 17 61  1  0  0  0  0
 31 62  1  6  0  0  0
 45 63  1  0  0  0  0
 34 64  1  0  0  0  0
 30 65  1  0  0  0  0
 36 66  1  0  0  0  0
 36 67  1  0  0  0  0
 11 68  1  6  0  0  0
  8 69  1  0  0  0  0
  1 70  1  0  0  0  0
  1 71  1  0  0  0  0
  1 72  1  0  0  0  0
 24 73  1  0  0  0  0
 26 74  1  0  0  0  0
 25 75  1  0  0  0  0
 43 76  1  0  0  0  0
 43 77  1  0  0  0  0
  6 78  1  0  0  0  0
  6 79  1  0  0  0  0
 12 80  1  0  0  0  0
 12 81  1  0  0  0  0
  5 82  1  0  0  0  0
  5 83  1  0  0  0  0
 21 84  1  0  0  0  0
 21 85  1  0  0  0  0
 46 86  1  0  0  0  0
 46 87  1  0  0  0  0
 46 88  1  0  0  0  0
M  END
> <Molecule ChEMBL ID>
CHEMBL3963349

> <Class(50)>
1

> <Class(80)>
1

>  <salt>
false

>  <StandardizerResult>
Tautomerize (ID: Tautomerize)
Transform (ID: Transform NO2 (1))
Aromatize (ID: Aromatize)
Wedge Clean (ID: Wedge Clean)
Clean 2D (ID: Clean2D)

$$$$
CHEMBL17329
  Mrv2010 08032110442D          

 24 24  0  0  0  0            999 V2000
    0.3104    2.4418    0.0000 C   0  0  0  0  0  0  0  0  0  0  0  0
    0.3104    1.6168    0.0000 O   0  0  0  0  0  0  0  0  0  0  0  0
    1.0248    1.2043    0.0000 C   0  0  0  0  0  0  0  0  0  0  0  0
    1.7393    1.6168    0.0000 O   0  0  0  0  0  0  0  0  0  0  0  0
    1.0248    0.3793    0.0000 C   0  0  0  0  0  0  0  0  0  0  0  0
    1.7393   -0.0332    0.0000 C   0  0  0  0  0  0  0  0  0  0  0  0
    1.7393   -0.8582    0.0000 C   0  0  0  0  0  0  0  0  0  0  0  0
    2.4538   -1.2707    0.0000 C   0  0  0  0  0  0  0  0  0  0  0  0
    2.4538   -2.0957    0.0000 C   0  0  0  0  0  0  0  0  0  0  0  0
    3.1683   -2.5082    0.0000 O   0  0  0  0  0  0  0  0  0  0  0  0
    1.7393   -2.5082    0.0000 C   0  0  0  0  0  0  0  0  0  0  0  0
    1.0248   -2.0957    0.0000 C   0  0  0  0  0  0  0  0  0  0  0  0
    1.0248   -1.2707    0.0000 C   0  0  0  0  0  0  0  0  0  0  0  0
    0.3104   -0.8582    0.0000 O   0  0  0  0  0  0  0  0  0  0  0  0
    3.1683   -3.3332    0.0000 H   0  0  0  0  0  0  0  0  0  0  0  0
    0.3104   -2.5082    0.0000 H   0  0  0  0  0  0  0  0  0  0  0  0
    1.7393   -3.3332    0.0000 H   0  0  0  0  0  0  0  0  0  0  0  0
    0.3104   -0.0332    0.0000 H   0  0  0  0  0  0  0  0  0  0  0  0
    1.1354    2.4418    0.0000 H   0  0  0  0  0  0  0  0  0  0  0  0
    0.3104    3.2668    0.0000 H   0  0  0  0  0  0  0  0  0  0  0  0
   -0.5146    2.4418    0.0000 H   0  0  0  0  0  0  0  0  0  0  0  0
    3.1683   -0.8582    0.0000 H   0  0  0  0  0  0  0  0  0  0  0  0
    2.4538    0.3793    0.0000 H   0  0  0  0  0  0  0  0  0  0  0  0
   -0.4041   -1.2707    0.0000 H   0  0  0  0  0  0  0  0  0  0  0  0
  1  2  1  0  0  0  0
  2  3  1  0  0  0  0
  3  4  2  0  0  0  0
  3  5  1  0  0  0  0
  5  6  2  0  0  0  0
  6  7  1  0  0  0  0
  7  8  4  0  0  0  0
  7 13  4  0  0  0  0
  8  9  4  0  0  0  0
  9 10  1  0  0  0  0
  9 11  4  0  0  0  0
 11 12  4  0  0  0  0
 12 13  4  0  0  0  0
 13 14  1  0  0  0  0
 10 15  1  0  0  0  0
 12 16  1  0  0  0  0
 11 17  1  0  0  0  0
  5 18  1  0  0  0  0
  1 19  1  0  0  0  0
  1 20  1  0  0  0  0
  1 21  1  0  0  0  0
  8 22  1  0  0  0  0
  6 23  1  0  0  0  0
 14 24  1  0  0  0  0
M  END
> <Molecule ChEMBL ID>
CHEMBL17329

> <Class(50)>
1

> <Class(80)>
1

>  <salt>
false

>  <StandardizerResult>
Tautomerize (ID: Tautomerize)
Neutralize (ID: Neutralize)
Aromatize (ID: Aromatize)
Wedge Clean (ID: Wedge Clean)
Clean 2D (ID: Clean2D)

$$$$
CHEMBL3989870
  Mrv2010 08032110442D          

 58 61  0  0  1  0            999 V2000
   -6.4867    4.7278    0.0000 C   0  0  0  0  0  0  0  0  0  0  0  0
   -6.4867    3.9028    0.0000 N   0  0  0  0  0  0  0  0  0  0  0  0
   -5.7722    3.4903    0.0000 C   0  0  0  0  0  0  0  0  0  0  0  0
   -5.7722    2.6653    0.0000 C   0  0  0  0  0  0  0  0  0  0  0  0
   -5.0577    2.2528    0.0000 C   0  0  0  0  0  0  0  0  0  0  0  0
   -5.0577    1.4278    0.0000 C   0  0  0  0  0  0  0  0  0  0  0  0
   -5.7722    1.0153    0.0000 C   0  0  0  0  0  0  0  0  0  0  0  0
   -5.7722    0.1903    0.0000 C   0  0  0  0  0  0  0  0  0  0  0  0
   -5.1048   -0.2946    0.0000 C   0  0  0  0  0  0  0  0  0  0  0  0
   -5.3597   -1.0792    0.0000 C   0  0  0  0  0  0  0  0  0  0  0  0
   -4.8748   -1.7466    0.0000 C   0  0  0  0  0  0  0  0  0  0  0  0
   -4.0543   -1.6604    0.0000 N   0  0  0  0  0  0  0  0  0  0  0  0
   -3.5694   -2.3278    0.0000 C   0  0  0  0  0  0  0  0  0  0  0  0
   -2.7489   -2.2416    0.0000 C   0  0  0  0  0  0  0  0  0  0  0  0
   -2.4133   -1.4879    0.0000 C   0  0  0  0  0  0  0  0  0  0  0  0
   -1.5929   -1.4017    0.0000 C   0  0  0  0  0  0  0  0  0  0  0  0
   -1.1079   -2.0691    0.0000 C   0  0  0  0  0  0  0  0  0  0  0  0
   -0.2875   -1.9829    0.0000 S   0  0  0  0  0  0  0  0  0  0  0  0
   -0.2012   -2.8034    0.0000 O   0  0  0  0  0  0  0  0  0  0  0  0
   -0.3737   -1.1624    0.0000 O   0  0  0  0  0  0  0  0  0  0  0  0
    0.5330   -1.8967    0.0000 C   0  0  0  0  0  0  0  0  0  0  0  0
    0.8686   -1.1430    0.0000 C   0  0  0  0  0  0  0  0  0  0  0  0
    1.0179   -2.5641    0.0000 C   0  0  0  0  0  0  0  0  0  0  0  0
   -1.4435   -2.8228    0.0000 C   0  0  0  0  0  0  0  0  0  0  0  0
   -2.2640   -2.9090    0.0000 C   0  0  0  0  0  0  0  0  0  0  0  0
   -3.9049   -3.0815    0.0000 C   0  0  0  0  0  0  0  0  0  0  0  0
   -4.7254   -3.1678    0.0000 N   0  0  0  0  0  0  0  0  0  0  0  0
   -5.2103   -2.5003    0.0000 C   0  0  0  0  0  0  0  0  0  0  0  0
   -6.0308   -2.5865    0.0000 N   0  0  0  0  0  0  0  0  0  0  0  0
   -6.1847   -1.0792    0.0000 O   0  0  0  0  0  0  0  0  0  0  0  0
   -6.4397   -0.2946    0.0000 N   0  0  0  0  0  0  0  0  0  0  0  0
   -6.4867    1.4278    0.0000 C   0  0  0  0  0  0  0  0  0  0  0  0
   -6.4867    2.2528    0.0000 C   0  0  0  0  0  0  0  0  0  0  0  0
   -7.2012    1.0153    0.0000 H   0  0  0  0  0  0  0  0  0  0  0  0
    0.3505   -3.0490    0.0000 H   0  0  0  0  0  0  0  0  0  0  0  0
    1.5029   -3.2315    0.0000 H   0  0  0  0  0  0  0  0  0  0  0  0
    1.6854   -2.0792    0.0000 H   0  0  0  0  0  0  0  0  0  0  0  0
   -7.2012    3.4903    0.0000 H   0  0  0  0  0  0  0  0  0  0  0  0
   -0.9586   -3.4902    0.0000 H   0  0  0  0  0  0  0  0  0  0  0  0
   -2.5995   -3.6627    0.0000 H   0  0  0  0  0  0  0  0  0  0  0  0
    0.0481   -1.2292    0.0000 H   0  0  0  0  0  0  0  0  0  0  0  0
   -6.5157   -1.9191    0.0000 H   0  0  0  0  0  0  0  0  0  0  0  0
   -6.3664   -3.3402    0.0000 H   0  0  0  0  0  0  0  0  0  0  0  0
   -3.4200   -3.7490    0.0000 H   0  0  0  0  0  0  0  0  0  0  0  0
   -2.8983   -0.8205    0.0000 H   0  0  0  0  0  0  0  0  0  0  0  0
   -7.2012    2.6653    0.0000 H   0  0  0  0  0  0  0  0  0  0  0  0
   -5.6617    4.7278    0.0000 H   0  0  0  0  0  0  0  0  0  0  0  0
   -6.4867    5.5528    0.0000 H   0  0  0  0  0  0  0  0  0  0  0  0
   -7.3117    4.7278    0.0000 H   0  0  0  0  0  0  0  0  0  0  0  0
    1.5097   -1.6622    0.0000 H   0  0  0  0  0  0  0  0  0  0  0  0
    1.5360   -0.6581    0.0000 H   0  0  0  0  0  0  0  0  0  0  0  0
    0.5729   -0.3728    0.0000 H   0  0  0  0  0  0  0  0  0  0  0  0
   -4.3433    2.6653    0.0000 H   0  0  0  0  0  0  0  0  0  0  0  0
   -4.9486    3.5383    0.0000 H   0  0  0  0  0  0  0  0  0  0  0  0
   -5.3189    4.1796    0.0000 H   0  0  0  0  0  0  0  0  0  0  0  0
   -4.3433    1.0153    0.0000 H   0  0  0  0  0  0  0  0  0  0  0  0
   -4.3202   -0.0396    0.0000 H   0  0  0  0  0  0  0  0  0  0  0  0
   -1.2573   -0.6480    0.0000 H   0  0  0  0  0  0  0  0  0  0  0  0
  1  2  1  0  0  0  0
  2  3  1  0  0  0  0
  3  4  1  0  0  0  0
  4  5  4  0  0  0  0
  4 33  4  0  0  0  0
  5  6  4  0  0  0  0
  6  7  4  0  0  0  0
  7  8  1  0  0  0  0
  7 32  4  0  0  0  0
  8  9  4  0  0  0  0
  8 31  4  0  0  0  0
  9 10  4  0  0  0  0
 10 11  1  0  0  0  0
 10 30  4  0  0  0  0
 11 12  4  0  0  0  0
 11 28  4  0  0  0  0
 12 13  4  0  0  0  0
 13 14  1  0  0  0  0
 13 26  4  0  0  0  0
 14 15  4  0  0  0  0
 14 25  4  0  0  0  0
 15 16  4  0  0  0  0
 16 17  4  0  0  0  0
 17 18  1  0  0  0  0
 17 24  4  0  0  0  0
 18 19  2  0  0  0  0
 18 20  2  0  0  0  0
 18 21  1  0  0  0  0
 21 22  1  0  0  0  0
 21 23  1  0  0  0  0
 24 25  4  0  0  0  0
 26 27  4  0  0  0  0
 27 28  4  0  0  0  0
 28 29  1  0  0  0  0
 30 31  4  0  0  0  0
 32 33  4  0  0  0  0
 32 34  1  0  0  0  0
 23 35  1  0  0  0  0
 23 36  1  0  0  0  0
 23 37  1  0  0  0  0
  2 38  1  0  0  0  0
 24 39  1  0  0  0  0
 25 40  1  0  0  0  0
 21 41  1  0  0  0  0
 29 42  1  0  0  0  0
 29 43  1  0  0  0  0
 26 44  1  0  0  0  0
 15 45  1  0  0  0  0
 33 46  1  0  0  0  0
  1 47  1  0  0  0  0
  1 48  1  0  0  0  0
  1 49  1  0  0  0  0
 22 50  1  0  0  0  0
 22 51  1  0  0  0  0
 22 52  1  0  0  0  0
  5 53  1  0  0  0  0
  3 54  1  0  0  0  0
  3 55  1  0  0  0  0
  6 56  1  0  0  0  0
  9 57  1  0  0  0  0
 16 58  1  0  0  0  0
M  END
> <Molecule ChEMBL ID>
CHEMBL3989870

> <Class(50)>
1

> <Class(80)>
1

>  <salt>
false

>  <StandardizerResult>
Tautomerize (ID: Tautomerize)
Transform (ID: Transform NO2 (1))
Aromatize (ID: Aromatize)
Wedge Clean (ID: Wedge Clean)
Clean 2D (ID: Clean2D)

$$$$
CHEMBL1173055
  Mrv2010 08032110442D          

 42 45  0  0  1  0            999 V2000
    3.7904   -2.3192    0.0000 C   0  0  0  0  0  0  0  0  0  0  0  0
    3.3548   -1.6185    0.0000 N   0  0  0  0  0  0  0  0  0  0  0  0
    2.5303   -1.6454    0.0000 C   0  0  0  0  0  0  0  0  0  0  0  0
    2.0947   -0.9448    0.0000 C   0  0  0  0  0  0  0  0  0  0  0  0
    1.2701   -0.9717    0.0000 C   0  0  0  0  0  0  0  0  0  0  0  0
    0.8346   -0.2710    0.0000 C   0  0  0  0  0  0  0  0  0  0  0  0
    1.2236    0.4565    0.0000 C   0  0  0  0  0  0  0  0  0  0  0  0
    0.7880    1.1572    0.0000 C   0  0  0  0  0  0  0  0  0  0  0  0
   -0.0349    1.2166    0.0000 N   0  0  0  0  0  0  0  0  0  0  0  0
   -0.2326    2.0176    0.0000 C   0  0  0  0  0  0  0  0  0  0  0  0
   -0.9601    2.4066    0.0000 C   0  0  0  0  0  0  0  0  0  0  0  0
   -0.9870    3.2311    0.0000 C   0  0  0  0  0  0  0  0  0  0  0  0
   -1.7146    3.6201    0.0000 F   0  0  0  0  0  0  0  0  0  0  0  0
   -0.2864    3.6667    0.0000 C   0  0  0  0  0  0  0  0  0  0  0  0
    0.4905    3.2778    0.0000 C   0  0  0  0  0  0  0  0  0  0  0  0
    0.4680    2.4531    0.0000 C   0  0  0  0  0  0  0  0  0  0  0  0
    1.0988    1.9214    0.0000 C   0  0  0  0  0  0  0  0  0  0  0  0
    1.9078    2.0830    0.0000 C   0  0  0  0  0  0  0  0  0  0  0  0
    2.2859    2.8163    0.0000 C   0  0  0  0  0  0  0  0  0  0  0  0
    1.9483    3.5690    0.0000 N   0  0  0  0  0  0  0  0  0  0  0  0
    1.1493    3.7745    0.0000 C   0  0  0  0  0  0  0  0  0  0  0  0
    0.9877    4.5835    0.0000 O   0  0  0  0  0  0  0  0  0  0  0  0
    2.0481    0.4834    0.0000 C   0  0  0  0  0  0  0  0  0  0  0  0
    2.4837   -0.2172    0.0000 C   0  0  0  0  0  0  0  0  0  0  0  0
    3.7438   -0.8910    0.0000 H   0  0  0  0  0  0  0  0  0  0  0  0
    3.0897   -2.7547    0.0000 H   0  0  0  0  0  0  0  0  0  0  0  0
    4.2260   -3.0198    0.0000 H   0  0  0  0  0  0  0  0  0  0  0  0
    4.4910   -1.8836    0.0000 H   0  0  0  0  0  0  0  0  0  0  0  0
    0.8811   -1.6992    0.0000 H   0  0  0  0  0  0  0  0  0  0  0  0
    0.0100   -0.2979    0.0000 H   0  0  0  0  0  0  0  0  0  0  0  0
    3.0192    2.4382    0.0000 H   0  0  0  0  0  0  0  0  0  0  0  0
    3.0387    3.1538    0.0000 H   0  0  0  0  0  0  0  0  0  0  0  0
    3.3083   -0.1903    0.0000 H   0  0  0  0  0  0  0  0  0  0  0  0
    1.8561   -2.1210    0.0000 H   0  0  0  0  0  0  0  0  0  0  0  0
    2.5092   -2.4701    0.0000 H   0  0  0  0  0  0  0  0  0  0  0  0
    2.0694    1.2740    0.0000 H   0  0  0  0  0  0  0  0  0  0  0  0
    2.6411    1.7049    0.0000 H   0  0  0  0  0  0  0  0  0  0  0  0
   -0.5666    0.5859    0.0000 H   0  0  0  0  0  0  0  0  0  0  0  0
   -1.6608    1.9710    0.0000 H   0  0  0  0  0  0  0  0  0  0  0  0
   -0.3244    4.4908    0.0000 H   0  0  0  0  0  0  0  0  0  0  0  0
    2.4801    4.1998    0.0000 H   0  0  0  0  0  0  0  0  0  0  0  0
    2.8444    0.6992    0.0000 H   0  0  0  0  0  0  0  0  0  0  0  0
  1  2  1  0  0  0  0
  2  3  1  0  0  0  0
  3  4  1  0  0  0  0
  4  5  4  0  0  0  0
  4 24  4  0  0  0  0
  5  6  4  0  0  0  0
  6  7  4  0  0  0  0
  7  8  1  0  0  0  0
  7 23  4  0  0  0  0
  8  9  4  0  0  0  0
  8 17  4  0  0  0  0
  9 10  4  0  0  0  0
 10 11  4  0  0  0  0
 10 16  4  0  0  0  0
 11 12  4  0  0  0  0
 12 13  1  0  0  0  0
 12 14  4  0  0  0  0
 14 15  4  0  0  0  0
 15 16  4  0  0  0  0
 15 21  1  0  0  0  0
 16 17  4  0  0  0  0
 17 18  1  0  0  0  0
 18 19  1  0  0  0  0
 19 20  1  0  0  0  0
 20 21  1  0  0  0  0
 21 22  2  0  0  0  0
 23 24  4  0  0  0  0
  2 25  1  0  0  0  0
  1 26  1  0  0  0  0
  1 27  1  0  0  0  0
  1 28  1  0  0  0  0
  5 29  1  0  0  0  0
  6 30  1  0  0  0  0
 19 31  1  0  0  0  0
 19 32  1  0  0  0  0
 24 33  1  0  0  0  0
  3 34  1  0  0  0  0
  3 35  1  0  0  0  0
 18 36  1  0  0  0  0
 18 37  1  0  0  0  0
  9 38  1  0  0  0  0
 11 39  1  0  0  0  0
 14 40  1  0  0  0  0
 20 41  1  0  0  0  0
 23 42  1  0  0  0  0
M  END
> <Molecule ChEMBL ID>
CHEMBL1173055

> <Class(50)>
1

> <Class(80)>
1

>  <salt>
false

>  <StandardizerResult>
Tautomerize (ID: Tautomerize)
Transform (ID: Transform NO2 (1))
Aromatize (ID: Aromatize)
Wedge Clean (ID: Wedge Clean)
Clean 2D (ID: Clean2D)

$$$$
CHEMBL3770443
  Mrv2010 08032110442D          

 60 64  0  0  1  0            999 V2000
   -4.9412   -0.6345    0.0000 C   0  0  0  0  0  0  0  0  0  0  0  0
   -4.9412    0.1905    0.0000 N   0  0  0  0  0  0  0  0  0  0  0  0
   -4.2267    0.6030    0.0000 C   0  0  0  0  0  0  0  0  0  0  0  0
   -4.2267    1.4280    0.0000 N   0  0  0  0  0  0  0  0  0  0  0  0
   -3.5122    1.8405    0.0000 C   0  0  0  0  0  0  0  0  0  0  0  0
   -2.7977    1.4280    0.0000 C   0  0  0  0  0  0  0  0  0  0  0  0
   -2.0833    1.8405    0.0000 C   0  0  0  0  0  0  0  0  0  0  0  0
   -1.3688    1.4280    0.0000 C   0  0  0  0  0  0  0  0  0  0  0  0
   -0.6543    1.8405    0.0000 C   0  0  0  0  0  0  0  0  0  0  0  0
   -0.6543    2.6655    0.0000 C   0  0  0  0  0  0  0  0  0  0  0  0
    0.0601    3.0780    0.0000 C   0  0  0  0  0  0  0  0  0  0  0  0
    0.7746    2.6655    0.0000 C   0  0  0  0  0  0  0  0  0  0  0  0
    1.4891    3.0780    0.0000 C   0  0  0  0  0  0  0  0  0  0  0  0
    1.4891    3.9030    0.0000 C   0  0  0  0  0  0  0  0  0  0  0  0
    2.2035    4.3155    0.0000 C   0  0  0  0  0  0  0  0  0  0  0  0
    2.9180    3.9030    0.0000 C   0  0  0  0  0  0  0  0  0  0  0  0
    2.9180    3.0780    0.0000 C   0  0  0  0  0  0  0  0  0  0  0  0
    3.6325    2.6655    0.0000 C   0  0  0  0  0  0  0  0  0  0  0  0
    2.2035    2.6655    0.0000 N   0  0  0  0  0  0  0  0  0  0  0  0
    0.7746    1.8405    0.0000 C   0  0  0  0  0  0  0  0  0  0  0  0
    0.0601    1.4280    0.0000 C   0  0  0  0  0  0  0  0  0  0  0  0
    0.0601    0.6030    0.0000 Cl  0  0  0  0  0  0  0  0  0  0  0  0
   -1.3688    0.6030    0.0000 C   0  0  0  0  0  0  0  0  0  0  0  0
   -0.6543    0.1905    0.0000 O   0  0  0  0  0  0  0  0  0  0  0  0
   -2.0833    0.1905    0.0000 N   0  0  0  0  0  0  0  0  0  0  0  0
   -2.0833   -0.6345    0.0000 C   0  0  0  0  0  0  0  0  0  0  0  0
   -2.7977   -1.0470    0.0000 C   0  0  1  0  0  0  0  0  0  0  0  0
   -2.7977   -1.8720    0.0000 O   0  0  0  0  0  0  0  0  0  0  0  0
   -3.5122   -2.2845    0.0000 C   0  0  0  0  0  0  0  0  0  0  0  0
   -4.2267   -1.8720    0.0000 C   0  0  1  0  0  0  0  0  0  0  0  0
   -4.9412   -2.2845    0.0000 N   0  0  0  0  0  0  0  0  0  0  0  0
   -4.2267   -1.0470    0.0000 C   0  0  0  0  0  0  0  0  0  0  0  0
   -3.5122   -0.6345    0.0000 O   0  0  0  0  0  0  0  0  0  0  0  0
   -2.7977    0.6030    0.0000 C   0  0  0  0  0  0  0  0  0  0  0  0
   -3.5122    0.1905    0.0000 N   0  0  0  0  0  0  0  0  0  0  0  0
    3.6325    4.3155    0.0000 H   0  0  0  0  0  0  0  0  0  0  0  0
   -5.7648   -2.3325    0.0000 H   0  0  0  0  0  0  0  0  0  0  0  0
   -5.3945   -2.9738    0.0000 H   0  0  0  0  0  0  0  0  0  0  0  0
   -3.8825   -3.0218    0.0000 H   0  0  0  0  0  0  0  0  0  0  0  0
   -3.1420   -3.0218    0.0000 H   0  0  0  0  0  0  0  0  0  0  0  0
   -2.0833    2.6655    0.0000 H   0  0  0  0  0  0  0  0  0  0  0  0
   -4.2267   -0.2220    0.0000 H   0  0  0  0  0  0  0  0  0  0  0  0
   -3.5122   -1.4595    0.0000 H   0  0  0  0  0  0  0  0  0  0  0  0
   -1.6299   -1.3238    0.0000 H   0  0  0  0  0  0  0  0  0  0  0  0
   -1.2597   -0.6825    0.0000 H   0  0  0  0  0  0  0  0  0  0  0  0
   -4.2267   -2.6970    0.0000 H   0  0  0  0  0  0  0  0  0  0  0  0
   -5.6556   -0.2220    0.0000 H   0  0  0  0  0  0  0  0  0  0  0  0
   -5.6556   -1.0470    0.0000 H   0  0  0  0  0  0  0  0  0  0  0  0
   -4.9412   -1.4595    0.0000 H   0  0  0  0  0  0  0  0  0  0  0  0
    0.7746    4.3155    0.0000 H   0  0  0  0  0  0  0  0  0  0  0  0
   -5.3537    0.9049    0.0000 H   0  0  0  0  0  0  0  0  0  0  0  0
    0.0601    3.9030    0.0000 H   0  0  0  0  0  0  0  0  0  0  0  0
    2.2035    5.1405    0.0000 H   0  0  0  0  0  0  0  0  0  0  0  0
   -2.7977   -0.2220    0.0000 H   0  0  0  0  0  0  0  0  0  0  0  0
   -3.5122    2.6655    0.0000 H   0  0  0  0  0  0  0  0  0  0  0  0
   -1.3688    3.0780    0.0000 H   0  0  0  0  0  0  0  0  0  0  0  0
    1.4891    1.4280    0.0000 H   0  0  0  0  0  0  0  0  0  0  0  0
    3.2200    1.9510    0.0000 H   0  0  0  0  0  0  0  0  0  0  0  0
    4.3470    2.2530    0.0000 H   0  0  0  0  0  0  0  0  0  0  0  0
    4.0450    3.3799    0.0000 H   0  0  0  0  0  0  0  0  0  0  0  0
  1  2  1  0  0  0  0
  2  3  1  0  0  0  0
  3  4  4  0  0  0  0
  3 35  4  0  0  0  0
  4  5  4  0  0  0  0
  5  6  4  0  0  0  0
  6  7  1  0  0  0  0
  6 34  4  0  0  0  0
  7  8  2  0  0  0  0
  8  9  1  0  0  0  0
  8 23  1  0  0  0  0
  9 10  4  0  0  0  0
  9 21  4  0  0  0  0
 10 11  4  0  0  0  0
 11 12  4  0  0  0  0
 12 13  1  0  0  0  0
 12 20  4  0  0  0  0
 13 14  4  0  0  0  0
 13 19  4  0  0  0  0
 14 15  4  0  0  0  0
 15 16  4  0  0  0  0
 16 17  4  0  0  0  0
 17 18  1  0  0  0  0
 17 19  4  0  0  0  0
 20 21  4  0  0  0  0
 21 22  1  0  0  0  0
 23 24  2  0  0  0  0
 23 25  1  0  0  0  0
 25 26  1  0  0  0  0
 25 34  1  0  0  0  0
 27 26  1  0  0  0  0
 27 28  1  0  0  0  0
 27 33  1  0  0  0  0
 28 29  1  0  0  0  0
 30 29  1  0  0  0  0
 30 31  1  0  0  0  0
 30 32  1  0  0  0  0
 32 33  1  0  0  0  0
 34 35  4  0  0  0  0
 16 36  1  0  0  0  0
 31 37  1  0  0  0  0
 31 38  1  0  0  0  0
 29 39  1  0  0  0  0
 29 40  1  0  0  0  0
  7 41  1  0  0  0  0
 32 42  1  0  0  0  0
 32 43  1  0  0  0  0
 26 44  1  0  0  0  0
 26 45  1  0  0  0  0
 30 46  1  6  0  0  0
  1 47  1  0  0  0  0
  1 48  1  0  0  0  0
  1 49  1  0  0  0  0
 14 50  1  0  0  0  0
  2 51  1  0  0  0  0
 11 52  1  0  0  0  0
 15 53  1  0  0  0  0
 27 54  1  6  0  0  0
  5 55  1  0  0  0  0
 10 56  1  0  0  0  0
 20 57  1  0  0  0  0
 18 58  1  0  0  0  0
 18 59  1  0  0  0  0
 18 60  1  0  0  0  0
M  END
> <Molecule ChEMBL ID>
CHEMBL3770443

> <Class(50)>
1

> <Class(80)>
1

>  <salt>
false

>  <StandardizerResult>
Tautomerize (ID: Tautomerize)
Transform (ID: Transform NO2 (1))
Aromatize (ID: Aromatize)
Wedge Clean (ID: Wedge Clean)
Clean 2D (ID: Clean2D)

$$$$
CHEMBL284861
  Mrv2010 08032110442D          

 25 26  0  0  0  0            999 V2000
    1.1865    0.5704    0.0000 C   0  0  0  0  0  0  0  0  0  0  0  0
    1.1865   -0.2546    0.0000 N   0  0  0  0  0  0  0  0  0  0  0  0
    1.8539   -0.7395    0.0000 S   0  0  0  0  0  0  0  0  0  0  0  0
    1.5990   -1.5241    0.0000 C   0  0  0  0  0  0  0  0  0  0  0  0
    2.0839   -2.1916    0.0000 O   0  0  0  0  0  0  0  0  0  0  0  0
    0.7740   -1.5241    0.0000 N   0  0  0  0  0  0  0  0  0  0  0  0
    0.2891   -2.1916    0.0000 C   0  0  0  0  0  0  0  0  0  0  0  0
   -0.5314   -2.1053    0.0000 C   0  0  0  0  0  0  0  0  0  0  0  0
   -1.0163   -2.7728    0.0000 C   0  0  0  0  0  0  0  0  0  0  0  0
   -1.8368   -2.6865    0.0000 C   0  0  0  0  0  0  0  0  0  0  0  0
   -2.1724   -1.9329    0.0000 C   0  0  0  0  0  0  0  0  0  0  0  0
   -1.6875   -1.2654    0.0000 C   0  0  0  0  0  0  0  0  0  0  0  0
   -0.8670   -1.3517    0.0000 C   0  0  0  0  0  0  0  0  0  0  0  0
    0.5190   -0.7395    0.0000 C   0  0  0  0  0  0  0  0  0  0  0  0
   -0.2656   -0.4846    0.0000 O   0  0  0  0  0  0  0  0  0  0  0  0
   -2.0230   -0.5117    0.0000 H   0  0  0  0  0  0  0  0  0  0  0  0
   -0.6808   -3.5264    0.0000 H   0  0  0  0  0  0  0  0  0  0  0  0
    2.0115    0.5704    0.0000 H   0  0  0  0  0  0  0  0  0  0  0  0
    1.1865    1.3954    0.0000 H   0  0  0  0  0  0  0  0  0  0  0  0
    0.3615    0.5704    0.0000 H   0  0  0  0  0  0  0  0  0  0  0  0
   -2.3217   -3.3540    0.0000 H   0  0  0  0  0  0  0  0  0  0  0  0
    0.2507   -3.0157    0.0000 H   0  0  0  0  0  0  0  0  0  0  0  0
    0.9272   -2.7145    0.0000 H   0  0  0  0  0  0  0  0  0  0  0  0
   -0.3821   -0.6842    0.0000 H   0  0  0  0  0  0  0  0  0  0  0  0
   -2.9929   -1.8466    0.0000 H   0  0  0  0  0  0  0  0  0  0  0  0
  1  2  1  0  0  0  0
  2  3  1  0  0  0  0
  2 14  1  0  0  0  0
  3  4  1  0  0  0  0
  4  5  2  0  0  0  0
  4  6  1  0  0  0  0
  6  7  1  0  0  0  0
  6 14  1  0  0  0  0
  7  8  1  0  0  0  0
  8  9  4  0  0  0  0
  8 13  4  0  0  0  0
  9 10  4  0  0  0  0
 10 11  4  0  0  0  0
 11 12  4  0  0  0  0
 12 13  4  0  0  0  0
 14 15  2  0  0  0  0
 12 16  1  0  0  0  0
  9 17  1  0  0  0  0
  1 18  1  0  0  0  0
  1 19  1  0  0  0  0
  1 20  1  0  0  0  0
 10 21  1  0  0  0  0
  7 22  1  0  0  0  0
  7 23  1  0  0  0  0
 13 24  1  0  0  0  0
 11 25  1  0  0  0  0
M  END
> <Molecule ChEMBL ID>
CHEMBL284861

> <Class(50)>
1

> <Class(80)>
1

>  <salt>
false

>  <StandardizerResult>
Tautomerize (ID: Tautomerize)
Neutralize (ID: Neutralize)
Aromatize (ID: Aromatize)
Wedge Clean (ID: Wedge Clean)
Clean 2D (ID: Clean2D)

$$$$
CHEMBL1271764
  Mrv2010 08032110442D          

 37 39  0  0  0  0            999 V2000
   -1.1730    3.6664    0.0000 C   0  0  0  0  0  0  0  0  0  0  0  0
   -1.1730    2.8414    0.0000 N   0  0  0  0  0  0  0  0  0  0  0  0
   -0.4586    2.4289    0.0000 C   0  0  0  0  0  0  0  0  0  0  0  0
   -0.4586    1.6039    0.0000 C   0  0  0  0  0  0  0  0  0  0  0  0
   -1.1730    1.1914    0.0000 N   0  0  0  0  0  0  0  0  0  0  0  0
   -1.1730    0.3664    0.0000 C   0  0  0  0  0  0  0  0  0  0  0  0
   -0.5056   -0.1185    0.0000 C   0  0  0  0  0  0  0  0  0  0  0  0
    0.2790    0.1364    0.0000 Cl  0  0  0  0  0  0  0  0  0  0  0  0
   -0.7605   -0.9031    0.0000 C   0  0  0  0  0  0  0  0  0  0  0  0
   -0.2756   -1.5706    0.0000 O   0  0  0  0  0  0  0  0  0  0  0  0
   -1.5855   -0.9031    0.0000 N   0  0  0  0  0  0  0  0  0  0  0  0
   -2.0704   -1.5706    0.0000 C   0  0  0  0  0  0  0  0  0  0  0  0
   -1.7349   -2.3242    0.0000 C   0  0  0  0  0  0  0  0  0  0  0  0
   -2.2198   -2.9917    0.0000 C   0  0  0  0  0  0  0  0  0  0  0  0
   -3.0403   -2.9054    0.0000 C   0  0  0  0  0  0  0  0  0  0  0  0
   -3.5252   -3.5729    0.0000 Cl  0  0  0  0  0  0  0  0  0  0  0  0
   -3.3758   -2.1518    0.0000 C   0  0  0  0  0  0  0  0  0  0  0  0
   -4.1963   -2.0655    0.0000 Cl  0  0  0  0  0  0  0  0  0  0  0  0
   -2.8909   -1.4843    0.0000 C   0  0  0  0  0  0  0  0  0  0  0  0
   -1.8405   -0.1185    0.0000 C   0  0  0  0  0  0  0  0  0  0  0  0
   -2.6251    0.1364    0.0000 O   0  0  0  0  0  0  0  0  0  0  0  0
   -1.8875    1.6039    0.0000 C   0  0  0  0  0  0  0  0  0  0  0  0
   -1.8875    2.4289    0.0000 C   0  0  0  0  0  0  0  0  0  0  0  0
   -2.7111    1.5560    0.0000 H   0  0  0  0  0  0  0  0  0  0  0  0
   -2.3408    0.9146    0.0000 H   0  0  0  0  0  0  0  0  0  0  0  0
   -0.3480    3.6664    0.0000 H   0  0  0  0  0  0  0  0  0  0  0  0
   -1.1730    4.4914    0.0000 H   0  0  0  0  0  0  0  0  0  0  0  0
   -1.9980    3.6664    0.0000 H   0  0  0  0  0  0  0  0  0  0  0  0
   -0.0052    0.9146    0.0000 H   0  0  0  0  0  0  0  0  0  0  0  0
    0.3651    1.5560    0.0000 H   0  0  0  0  0  0  0  0  0  0  0  0
   -0.9144   -2.4105    0.0000 H   0  0  0  0  0  0  0  0  0  0  0  0
   -3.2265   -0.7307    0.0000 H   0  0  0  0  0  0  0  0  0  0  0  0
   -2.3408    3.1182    0.0000 H   0  0  0  0  0  0  0  0  0  0  0  0
   -2.7111    2.4769    0.0000 H   0  0  0  0  0  0  0  0  0  0  0  0
    0.3651    2.4769    0.0000 H   0  0  0  0  0  0  0  0  0  0  0  0
   -0.0052    3.1182    0.0000 H   0  0  0  0  0  0  0  0  0  0  0  0
   -1.8843   -3.7454    0.0000 H   0  0  0  0  0  0  0  0  0  0  0  0
  1  2  1  0  0  0  0
  2  3  1  0  0  0  0
  2 23  1  0  0  0  0
  3  4  1  0  0  0  0
  4  5  1  0  0  0  0
  5  6  1  0  0  0  0
  5 22  1  0  0  0  0
  6  7  2  0  0  0  0
  6 20  1  0  0  0  0
  7  8  1  0  0  0  0
  7  9  1  0  0  0  0
  9 10  2  0  0  0  0
  9 11  1  0  0  0  0
 11 12  1  0  0  0  0
 11 20  1  0  0  0  0
 12 13  4  0  0  0  0
 12 19  4  0  0  0  0
 13 14  4  0  0  0  0
 14 15  4  0  0  0  0
 15 16  1  0  0  0  0
 15 17  4  0  0  0  0
 17 18  1  0  0  0  0
 17 19  4  0  0  0  0
 20 21  2  0  0  0  0
 22 23  1  0  0  0  0
 22 24  1  0  0  0  0
 22 25  1  0  0  0  0
  1 26  1  0  0  0  0
  1 27  1  0  0  0  0
  1 28  1  0  0  0  0
  4 29  1  0  0  0  0
  4 30  1  0  0  0  0
 13 31  1  0  0  0  0
 19 32  1  0  0  0  0
 23 33  1  0  0  0  0
 23 34  1  0  0  0  0
  3 35  1  0  0  0  0
  3 36  1  0  0  0  0
 14 37  1  0  0  0  0
M  END
> <Molecule ChEMBL ID>
CHEMBL1271764

> <Class(50)>
1

> <Class(80)>
1

>  <salt>
false

>  <StandardizerResult>
Tautomerize (ID: Tautomerize)
Neutralize (ID: Neutralize)
Aromatize (ID: Aromatize)
Wedge Clean (ID: Wedge Clean)
Clean 2D (ID: Clean2D)

$$$$
CHEMBL3665060
  Mrv2010 08032110442D          

 47 50  0  0  0  0            999 V2000
   -3.1408   -3.5725    0.0000 C   0  0  0  0  0  0  0  0  0  0  0  0
   -2.3203   -3.4862    0.0000 N   0  0  0  0  0  0  0  0  0  0  0  0
   -1.9848   -2.7326    0.0000 C   0  0  0  0  0  0  0  0  0  0  0  0
   -1.1643   -2.6463    0.0000 C   0  0  0  0  0  0  0  0  0  0  0  0
   -0.6794   -3.3138    0.0000 N   0  0  0  0  0  0  0  0  0  0  0  0
    0.1411   -3.2275    0.0000 C   0  0  0  0  0  0  0  0  0  0  0  0
    0.6260   -3.8950    0.0000 O   0  0  0  0  0  0  0  0  0  0  0  0
    0.4767   -2.4739    0.0000 C   0  0  0  0  0  0  0  0  0  0  0  0
    0.0642   -1.7594    0.0000 C   0  0  0  0  0  0  0  0  0  0  0  0
    0.6162   -1.1463    0.0000 C   0  0  0  0  0  0  0  0  0  0  0  0
    1.3699   -1.4818    0.0000 C   0  0  0  0  0  0  0  0  0  0  0  0
    2.0843   -1.0693    0.0000 C   0  0  0  0  0  0  0  0  0  0  0  0
    2.0843   -0.2443    0.0000 C   0  0  0  0  0  0  0  0  0  0  0  0
    2.7988    0.1682    0.0000 C   0  0  0  0  0  0  0  0  0  0  0  0
    3.5133   -0.2443    0.0000 C   0  0  0  0  0  0  0  0  0  0  0  0
    4.2278    0.1682    0.0000 C   0  0  0  0  0  0  0  0  0  0  0  0
    4.2278    0.9932    0.0000 C   0  0  0  0  0  0  0  0  0  0  0  0
    3.5133    1.4057    0.0000 O   0  0  0  0  0  0  0  0  0  0  0  0
    4.9422   -0.2443    0.0000 C   0  0  0  0  0  0  0  0  0  0  0  0
    5.6567    0.1682    0.0000 O   0  0  0  0  0  0  0  0  0  0  0  0
    4.9422   -1.0693    0.0000 C   0  0  0  0  0  0  0  0  0  0  0  0
    4.2278   -1.4818    0.0000 C   0  0  0  0  0  0  0  0  0  0  0  0
    3.5133   -1.0693    0.0000 C   0  0  0  0  0  0  0  0  0  0  0  0
    2.7988   -1.4818    0.0000 C   0  0  0  0  0  0  0  0  0  0  0  0
    1.2836   -2.3023    0.0000 S   0  0  0  0  0  0  0  0  0  0  0  0
   -1.0149   -4.0674    0.0000 C   0  0  0  0  0  0  0  0  0  0  0  0
   -1.8354   -4.1537    0.0000 C   0  0  0  0  0  0  0  0  0  0  0  0
   -3.2270   -2.7520    0.0000 H   0  0  0  0  0  0  0  0  0  0  0  0
   -3.9613   -3.6587    0.0000 H   0  0  0  0  0  0  0  0  0  0  0  0
   -3.0546   -4.3930    0.0000 H   0  0  0  0  0  0  0  0  0  0  0  0
    1.3699    0.1682    0.0000 H   0  0  0  0  0  0  0  0  0  0  0  0
   -2.4735   -4.6766    0.0000 H   0  0  0  0  0  0  0  0  0  0  0  0
   -1.7970   -4.9778    0.0000 H   0  0  0  0  0  0  0  0  0  0  0  0
   -0.4643   -1.1258    0.0000 H   0  0  0  0  0  0  0  0  0  0  0  0
    2.7988   -2.3068    0.0000 H   0  0  0  0  0  0  0  0  0  0  0  0
   -0.8811   -4.8815    0.0000 H   0  0  0  0  0  0  0  0  0  0  0  0
   -0.2820   -4.4463    0.0000 H   0  0  0  0  0  0  0  0  0  0  0  0
    0.4447   -0.3393    0.0000 H   0  0  0  0  0  0  0  0  0  0  0  0
    4.2278   -2.3068    0.0000 H   0  0  0  0  0  0  0  0  0  0  0  0
   -0.5262   -2.1234    0.0000 H   0  0  0  0  0  0  0  0  0  0  0  0
   -1.2027   -1.8222    0.0000 H   0  0  0  0  0  0  0  0  0  0  0  0
    6.3712   -0.2443    0.0000 H   0  0  0  0  0  0  0  0  0  0  0  0
   -2.1186   -1.9185    0.0000 H   0  0  0  0  0  0  0  0  0  0  0  0
   -2.7177   -2.3537    0.0000 H   0  0  0  0  0  0  0  0  0  0  0  0
    2.7988    0.9932    0.0000 H   0  0  0  0  0  0  0  0  0  0  0  0
    5.6567   -1.4818    0.0000 H   0  0  0  0  0  0  0  0  0  0  0  0
    4.9422    1.4057    0.0000 H   0  0  0  0  0  0  0  0  0  0  0  0
  1  2  1  0  0  0  0
  2  3  1  0  0  0  0
  2 27  1  0  0  0  0
  3  4  1  0  0  0  0
  4  5  1  0  0  0  0
  5  6  1  0  0  0  0
  5 26  1  0  0  0  0
  6  7  2  0  0  0  0
  6  8  1  0  0  0  0
  8  9  4  0  0  0  0
  8 25  4  0  0  0  0
  9 10  4  0  0  0  0
 10 11  4  0  0  0  0
 11 12  1  0  0  0  0
 11 25  4  0  0  0  0
 12 13  4  0  0  0  0
 12 24  4  0  0  0  0
 13 14  4  0  0  0  0
 14 15  4  0  0  0  0
 15 16  4  0  0  0  0
 15 23  4  0  0  0  0
 16 17  1  0  0  0  0
 16 19  4  0  0  0  0
 17 18  2  0  0  0  0
 19 20  1  0  0  0  0
 19 21  4  0  0  0  0
 21 22  4  0  0  0  0
 22 23  4  0  0  0  0
 23 24  4  0  0  0  0
 26 27  1  0  0  0  0
  1 28  1  0  0  0  0
  1 29  1  0  0  0  0
  1 30  1  0  0  0  0
 13 31  1  0  0  0  0
 27 32  1  0  0  0  0
 27 33  1  0  0  0  0
  9 34  1  0  0  0  0
 24 35  1  0  0  0  0
 26 36  1  0  0  0  0
 26 37  1  0  0  0  0
 10 38  1  0  0  0  0
 22 39  1  0  0  0  0
  4 40  1  0  0  0  0
  4 41  1  0  0  0  0
 20 42  1  0  0  0  0
  3 43  1  0  0  0  0
  3 44  1  0  0  0  0
 14 45  1  0  0  0  0
 21 46  1  0  0  0  0
 17 47  1  0  0  0  0
M  END
> <Molecule ChEMBL ID>
CHEMBL3665060

> <Class(50)>
1

> <Class(80)>
1

>  <salt>
false

>  <StandardizerResult>
Tautomerize (ID: Tautomerize)
Neutralize (ID: Neutralize)
Aromatize (ID: Aromatize)
Wedge Clean (ID: Wedge Clean)
Clean 2D (ID: Clean2D)

$$$$
CHEMBL1517651
  Mrv2010 08032110442D          

 28 30  0  0  1  0            999 V2000
   -2.5526    1.2941    0.0000 C   0  0  0  0  0  0  0  0  0  0  0  0
   -1.8382    1.7066    0.0000 N   0  0  0  0  0  0  0  0  0  0  0  0
   -1.8382    2.5316    0.0000 C   0  0  0  0  0  0  0  0  0  0  0  0
   -1.1237    2.9441    0.0000 C   0  0  0  0  0  0  0  0  0  0  0  0
   -0.4092    2.5316    0.0000 C   0  0  0  0  0  0  0  0  0  0  0  0
    0.3052    2.9441    0.0000 C   0  0  0  0  0  0  0  0  0  0  0  0
    1.0197    2.5316    0.0000 C   0  0  0  0  0  0  0  0  0  0  0  0
    1.0197    1.7066    0.0000 C   0  0  0  0  0  0  0  0  0  0  0  0
    0.3052    1.2941    0.0000 C   0  0  0  0  0  0  0  0  0  0  0  0
   -0.4092    1.7066    0.0000 C   0  0  0  0  0  0  0  0  0  0  0  0
   -1.1237    1.2941    0.0000 C   0  0  0  0  0  0  0  0  0  0  0  0
   -1.1237    0.4691    0.0000 O   0  0  0  0  0  0  0  0  0  0  0  0
    1.8043    1.4517    0.0000 O   0  0  0  0  0  0  0  0  0  0  0  0
    2.2893    2.1191    0.0000 C   0  0  0  0  0  0  0  0  0  0  0  0
    1.8043    2.7866    0.0000 O   0  0  0  0  0  0  0  0  0  0  0  0
   -2.9651    2.0086    0.0000 H   0  0  0  0  0  0  0  0  0  0  0  0
   -3.2671    0.8816    0.0000 H   0  0  0  0  0  0  0  0  0  0  0  0
   -2.1401    0.5797    0.0000 H   0  0  0  0  0  0  0  0  0  0  0  0
    0.3052    3.7691    0.0000 H   0  0  0  0  0  0  0  0  0  0  0  0
    0.3052    0.4691    0.0000 H   0  0  0  0  0  0  0  0  0  0  0  0
   -0.7112   -0.2453    0.0000 H   0  0  0  0  0  0  0  0  0  0  0  0
    3.0177    1.7318    0.0000 H   0  0  0  0  0  0  0  0  0  0  0  0
    3.0177    2.5065    0.0000 H   0  0  0  0  0  0  0  0  0  0  0  0
   -0.7534    3.6814    0.0000 H   0  0  0  0  0  0  0  0  0  0  0  0
   -1.4940    3.6814    0.0000 H   0  0  0  0  0  0  0  0  0  0  0  0
   -1.8382    0.8816    0.0000 H   0  0  0  0  0  0  0  0  0  0  0  0
   -2.2915    3.2209    0.0000 H   0  0  0  0  0  0  0  0  0  0  0  0
   -2.6618    2.5796    0.0000 H   0  0  0  0  0  0  0  0  0  0  0  0
  1  2  1  0  0  0  0
  2  3  1  0  0  0  0
  2 11  1  0  0  0  0
  3  4  1  0  0  0  0
  4  5  1  0  0  0  0
  5  6  4  0  0  0  0
  5 10  4  0  0  0  0
  6  7  4  0  0  0  0
  7  8  4  0  0  0  0
  7 15  1  0  0  0  0
  8  9  4  0  0  0  0
  8 13  1  0  0  0  0
  9 10  4  0  0  0  0
 10 11  1  0  0  0  0
 11 12  1  0  0  0  0
 13 14  1  0  0  0  0
 14 15  1  0  0  0  0
  1 16  1  0  0  0  0
  1 17  1  0  0  0  0
  1 18  1  0  0  0  0
  6 19  1  0  0  0  0
  9 20  1  0  0  0  0
 12 21  1  0  0  0  0
 14 22  1  0  0  0  0
 14 23  1  0  0  0  0
  4 24  1  0  0  0  0
  4 25  1  0  0  0  0
 11 26  1  0  0  0  0
  3 27  1  0  0  0  0
  3 28  1  0  0  0  0
M  END
> <Molecule ChEMBL ID>
CHEMBL1517651

> <Class(50)>
1

> <Class(80)>
1

>  <salt>
true

>  <StandardizerResult>
Tautomerize (ID: Tautomerize)
Transform (ID: Transform NO2 (1))
Aromatize (ID: Aromatize)
Wedge Clean (ID: Wedge Clean)
Clean 2D (ID: Clean2D)

$$$$
CHEMBL1256915
  Mrv2010 08032110442D          

 34 36  0  0  1  0            999 V2000
   -1.6792   -2.3610    0.0000 C   0  0  0  0  0  0  0  0  0  0  0  0
   -1.1812   -1.7033    0.0000 N   0  0  0  0  0  0  0  0  0  0  0  0
   -1.4206   -0.9138    0.0000 C   0  0  0  0  0  0  0  0  0  0  0  0
   -0.7438   -0.4421    0.0000 C   0  0  0  0  0  0  0  0  0  0  0  0
   -0.0860   -0.9401    0.0000 C   0  0  0  0  0  0  0  0  0  0  0  0
    0.1843   -0.1606    0.0000 C   0  0  0  0  0  0  0  0  0  0  0  0
    0.7388   -0.9564    0.0000 C   0  0  0  0  0  0  0  0  0  0  0  0
    1.3028   -0.3543    0.0000 C   0  0  0  0  0  0  0  0  0  0  0  0
    2.1063   -0.5417    0.0000 C   0  0  0  0  0  0  0  0  0  0  0  0
    2.6703    0.0604    0.0000 O   0  0  0  0  0  0  0  0  0  0  0  0
    2.3457   -1.3312    0.0000 C   0  0  0  0  0  0  0  0  0  0  0  0
    1.7817   -1.9332    0.0000 C   0  0  0  0  0  0  0  0  0  0  0  0
    0.9782   -1.7458    0.0000 C   0  0  0  0  0  0  0  0  0  0  0  0
    0.3014   -2.2175    0.0000 N   0  0  0  0  0  0  0  0  0  0  0  0
    0.2851   -3.0424    0.0000 C   0  0  0  0  0  0  0  0  0  0  0  0
   -0.3564   -1.7195    0.0000 C   0  0  0  0  0  0  0  0  0  0  0  0
   -0.7995    0.3810    0.0000 H   0  0  0  0  0  0  0  0  0  0  0  0
   -1.3556    0.1113    0.0000 H   0  0  0  0  0  0  0  0  0  0  0  0
   -0.5397   -3.0261    0.0000 H   0  0  0  0  0  0  0  0  0  0  0  0
    0.2689   -3.8672    0.0000 H   0  0  0  0  0  0  0  0  0  0  0  0
    1.1100   -3.0586    0.0000 H   0  0  0  0  0  0  0  0  0  0  0  0
    3.1491   -1.5186    0.0000 H   0  0  0  0  0  0  0  0  0  0  0  0
    3.4737   -0.1270    0.0000 H   0  0  0  0  0  0  0  0  0  0  0  0
    1.7068    0.3651    0.0000 H   0  0  0  0  0  0  0  0  0  0  0  0
   -1.9819   -0.3091    0.0000 H   0  0  0  0  0  0  0  0  0  0  0  0
   -2.2358   -1.0410    0.0000 H   0  0  0  0  0  0  0  0  0  0  0  0
   -0.6267   -2.4990    0.0000 H   0  0  0  0  0  0  0  0  0  0  0  0
   -2.3369   -1.8630    0.0000 H   0  0  0  0  0  0  0  0  0  0  0  0
   -2.1772   -3.0188    0.0000 H   0  0  0  0  0  0  0  0  0  0  0  0
   -1.0214   -2.8590    0.0000 H   0  0  0  0  0  0  0  0  0  0  0  0
    1.0016   -0.0477    0.0000 H   0  0  0  0  0  0  0  0  0  0  0  0
    0.4547    0.6188    0.0000 H   0  0  0  0  0  0  0  0  0  0  0  0
   -0.3874    0.4341    0.0000 H   0  0  0  0  0  0  0  0  0  0  0  0
    2.0211   -2.7227    0.0000 H   0  0  0  0  0  0  0  0  0  0  0  0
  1  2  1  0  0  0  0
  2  3  1  0  0  0  0
  2 16  1  0  0  0  0
  3  4  1  0  0  0  0
  4  5  1  0  0  0  0
  5  6  1  0  0  0  0
  5  7  1  0  0  0  0
  5 16  1  0  0  0  0
  7  8  4  0  0  0  0
  7 13  4  0  0  0  0
  8  9  4  0  0  0  0
  9 10  1  0  0  0  0
  9 11  4  0  0  0  0
 11 12  4  0  0  0  0
 12 13  4  0  0  0  0
 13 14  1  0  0  0  0
 14 15  1  0  0  0  0
 14 16  1  0  0  0  0
  4 17  1  0  0  0  0
  4 18  1  0  0  0  0
 15 19  1  0  0  0  0
 15 20  1  0  0  0  0
 15 21  1  0  0  0  0
 11 22  1  0  0  0  0
 10 23  1  0  0  0  0
  8 24  1  0  0  0  0
  3 25  1  0  0  0  0
  3 26  1  0  0  0  0
 16 27  1  0  0  0  0
  1 28  1  0  0  0  0
  1 29  1  0  0  0  0
  1 30  1  0  0  0  0
  6 31  1  0  0  0  0
  6 32  1  0  0  0  0
  6 33  1  0  0  0  0
 12 34  1  0  0  0  0
M  END
> <Molecule ChEMBL ID>
CHEMBL1256915

> <Class(50)>
1

> <Class(80)>
1

>  <salt>
true

>  <StandardizerResult>
Tautomerize (ID: Tautomerize)
Transform (ID: Transform NO2 (1))
Aromatize (ID: Aromatize)
Wedge Clean (ID: Wedge Clean)
Clean 2D (ID: Clean2D)

$$$$
CHEMBL1738731
  Mrv2010 08032110442D          

 42 46  0  0  0  0            999 V2000
    1.8719   -3.5343    0.0000 C   0  0  0  0  0  0  0  0  0  0  0  0
    1.0514   -3.4480    0.0000 N   0  0  0  0  0  0  0  0  0  0  0  0
    0.4993   -4.0611    0.0000 C   0  0  0  0  0  0  0  0  0  0  0  0
   -0.2543   -3.7256    0.0000 C   0  0  0  0  0  0  0  0  0  0  0  0
   -0.9688   -4.1381    0.0000 C   0  0  0  0  0  0  0  0  0  0  0  0
   -0.9688   -4.9631    0.0000 C   0  0  0  0  0  0  0  0  0  0  0  0
   -1.6833   -5.3756    0.0000 C   0  0  0  0  0  0  0  0  0  0  0  0
   -2.3977   -4.9631    0.0000 C   0  0  0  0  0  0  0  0  0  0  0  0
   -3.1824   -5.2180    0.0000 N   0  0  0  0  0  0  0  0  0  0  0  0
   -3.6673   -4.5506    0.0000 C   0  0  0  0  0  0  0  0  0  0  0  0
   -3.1824   -3.8831    0.0000 C   0  0  0  0  0  0  0  0  0  0  0  0
   -3.4373   -3.0985    0.0000 C   0  0  0  0  0  0  0  0  0  0  0  0
   -2.8853   -2.4854    0.0000 C   0  0  0  0  0  0  0  0  0  0  0  0
   -3.1402   -1.7008    0.0000 C   0  0  0  0  0  0  0  0  0  0  0  0
   -2.5882   -1.0877    0.0000 C   0  0  0  0  0  0  0  0  0  0  0  0
   -1.7812   -1.2592    0.0000 C   0  0  0  0  0  0  0  0  0  0  0  0
   -1.2292   -0.6461    0.0000 N   0  0  0  0  0  0  0  0  0  0  0  0
   -0.4222   -0.8177    0.0000 C   0  0  0  0  0  0  0  0  0  0  0  0
   -0.1673   -1.6023    0.0000 C   0  0  0  0  0  0  0  0  0  0  0  0
   -0.7193   -2.2154    0.0000 C   0  0  0  0  0  0  0  0  0  0  0  0
   -1.5263   -2.0439    0.0000 C   0  0  0  0  0  0  0  0  0  0  0  0
   -2.0783   -2.6570    0.0000 C   0  0  0  0  0  0  0  0  0  0  0  0
   -2.3977   -4.1381    0.0000 N   0  0  0  0  0  0  0  0  0  0  0  0
   -1.6833   -3.7256    0.0000 N   0  0  0  0  0  0  0  0  0  0  0  0
   -0.1681   -2.9051    0.0000 C   0  0  0  0  0  0  0  0  0  0  0  0
    0.6389   -2.7336    0.0000 N   0  0  0  0  0  0  0  0  0  0  0  0
   -0.9599   -3.1369    0.0000 H   0  0  0  0  0  0  0  0  0  0  0  0
    0.1298   -0.2046    0.0000 H   0  0  0  0  0  0  0  0  0  0  0  0
   -1.1526   -2.9174    0.0000 H   0  0  0  0  0  0  0  0  0  0  0  0
    0.6397   -1.7738    0.0000 H   0  0  0  0  0  0  0  0  0  0  0  0
   -2.8431   -0.3031    0.0000 H   0  0  0  0  0  0  0  0  0  0  0  0
    1.7856   -4.3548    0.0000 H   0  0  0  0  0  0  0  0  0  0  0  0
    2.6923   -3.6205    0.0000 H   0  0  0  0  0  0  0  0  0  0  0  0
    1.9581   -2.7138    0.0000 H   0  0  0  0  0  0  0  0  0  0  0  0
   -4.4923   -4.5506    0.0000 H   0  0  0  0  0  0  0  0  0  0  0  0
   -4.0815   -2.5831    0.0000 H   0  0  0  0  0  0  0  0  0  0  0  0
   -4.2354   -3.3074    0.0000 H   0  0  0  0  0  0  0  0  0  0  0  0
    0.6709   -4.8681    0.0000 H   0  0  0  0  0  0  0  0  0  0  0  0
   -0.2543   -5.3756    0.0000 H   0  0  0  0  0  0  0  0  0  0  0  0
   -3.9472   -1.5293    0.0000 H   0  0  0  0  0  0  0  0  0  0  0  0
   -1.6833   -6.2006    0.0000 H   0  0  0  0  0  0  0  0  0  0  0  0
   -2.2759   -3.4579    0.0000 H   0  0  0  0  0  0  0  0  0  0  0  0
  1  2  1  0  0  0  0
  2  3  4  0  0  0  0
  2 26  4  0  0  0  0
  3  4  4  0  0  0  0
  4  5  1  0  0  0  0
  4 25  4  0  0  0  0
  5  6  4  0  0  0  0
  5 24  4  0  0  0  0
  6  7  4  0  0  0  0
  7  8  4  0  0  0  0
  8  9  4  0  0  0  0
  8 23  4  0  0  0  0
  9 10  4  0  0  0  0
 10 11  4  0  0  0  0
 11 12  1  0  0  0  0
 11 23  4  0  0  0  0
 12 13  1  0  0  0  0
 13 14  4  0  0  0  0
 13 22  4  0  0  0  0
 14 15  4  0  0  0  0
 15 16  4  0  0  0  0
 16 17  4  0  0  0  0
 16 21  4  0  0  0  0
 17 18  4  0  0  0  0
 18 19  4  0  0  0  0
 19 20  4  0  0  0  0
 20 21  4  0  0  0  0
 21 22  4  0  0  0  0
 23 24  4  0  0  0  0
 25 26  4  0  0  0  0
 25 27  1  0  0  0  0
 18 28  1  0  0  0  0
 20 29  1  0  0  0  0
 19 30  1  0  0  0  0
 15 31  1  0  0  0  0
  1 32  1  0  0  0  0
  1 33  1  0  0  0  0
  1 34  1  0  0  0  0
 10 35  1  0  0  0  0
 12 36  1  0  0  0  0
 12 37  1  0  0  0  0
  3 38  1  0  0  0  0
  6 39  1  0  0  0  0
 14 40  1  0  0  0  0
  7 41  1  0  0  0  0
 22 42  1  0  0  0  0
M  END
> <Molecule ChEMBL ID>
CHEMBL1738731

> <Class(50)>
1

> <Class(80)>
1

>  <salt>
false

>  <StandardizerResult>
Tautomerize (ID: Tautomerize)
Neutralize (ID: Neutralize)
Aromatize (ID: Aromatize)
Wedge Clean (ID: Wedge Clean)
Clean 2D (ID: Clean2D)

$$$$
CHEMBL156592
  Mrv2010 08032110442D          

 46 50  0  0  1  0            999 V2000
   -2.4834   -1.4598    0.0000 C   0  0  0  0  0  0  0  0  0  0  0  0
   -1.7689   -1.0473    0.0000 N   0  0  0  0  0  0  0  0  0  0  0  0
   -1.0544   -1.4598    0.0000 C   0  0  0  0  0  0  0  0  0  0  0  0
   -0.3400   -1.0473    0.0000 C   0  0  0  0  0  0  0  0  0  0  0  0
   -1.1576   -0.8134    0.0000 C   0  0  0  0  0  0  0  0  0  0  0  0
   -1.7689   -0.2223    0.0000 C   0  0  0  0  0  0  0  0  0  0  0  0
   -1.0544    0.1902    0.0000 C   0  0  0  0  0  0  0  0  0  0  0  0
   -0.3400   -0.2223    0.0000 N   0  0  0  0  0  0  0  0  0  0  0  0
    0.3745    0.1902    0.0000 C   0  0  0  0  0  0  0  0  0  0  0  0
    1.0890   -0.2223    0.0000 C   0  0  0  0  0  0  0  0  0  0  0  0
    1.8035    0.1902    0.0000 C   0  0  0  0  0  0  0  0  0  0  0  0
    1.8035    1.0152    0.0000 C   0  0  0  0  0  0  0  0  0  0  0  0
    1.0890    1.4277    0.0000 C   0  0  0  0  0  0  0  0  0  0  0  0
    0.3745    1.0152    0.0000 C   0  0  0  0  0  0  0  0  0  0  0  0
   -0.3400    1.4277    0.0000 F   0  0  0  0  0  0  0  0  0  0  0  0
    2.5179    1.4277    0.0000 C   0  0  0  0  0  0  0  0  0  0  0  0
    2.5179    2.2527    0.0000 O   0  0  0  0  0  0  0  0  0  0  0  0
    3.2324    1.0152    0.0000 C   0  0  0  0  0  0  0  0  0  0  0  0
    3.9469    1.4277    0.0000 C   0  0  0  0  0  0  0  0  0  0  0  0
    3.9469    2.2527    0.0000 O   0  0  0  0  0  0  0  0  0  0  0  0
    4.6613    1.0152    0.0000 O   0  0  0  0  0  0  0  0  0  0  0  0
    3.2324    0.1902    0.0000 C   0  0  0  0  0  0  0  0  0  0  0  0
    2.5179   -0.2223    0.0000 N   0  0  0  0  0  0  0  0  0  0  0  0
    2.5179   -1.0473    0.0000 C   0  0  0  0  0  0  0  0  0  0  0  0
    2.9304   -1.7618    0.0000 C   0  0  0  0  0  0  0  0  0  0  0  0
    2.1054   -1.7618    0.0000 C   0  0  0  0  0  0  0  0  0  0  0  0
   -2.8959   -0.7453    0.0000 H   0  0  0  0  0  0  0  0  0  0  0  0
   -3.1978   -1.8723    0.0000 H   0  0  0  0  0  0  0  0  0  0  0  0
   -2.0709   -2.1743    0.0000 H   0  0  0  0  0  0  0  0  0  0  0  0
    4.6613    0.1902    0.0000 H   0  0  0  0  0  0  0  0  0  0  0  0
    0.3745   -1.4598    0.0000 H   0  0  0  0  0  0  0  0  0  0  0  0
    1.2818   -1.7138    0.0000 H   0  0  0  0  0  0  0  0  0  0  0  0
    1.7352   -2.4990    0.0000 H   0  0  0  0  0  0  0  0  0  0  0  0
   -0.4791   -0.3440    0.0000 H   0  0  0  0  0  0  0  0  0  0  0  0
   -1.0903    0.0088    0.0000 H   0  0  0  0  0  0  0  0  0  0  0  0
    1.7210   -0.8338    0.0000 H   0  0  0  0  0  0  0  0  0  0  0  0
   -1.4247   -2.1970    0.0000 H   0  0  0  0  0  0  0  0  0  0  0  0
   -0.6842   -2.1970    0.0000 H   0  0  0  0  0  0  0  0  0  0  0  0
   -2.4834    0.1902    0.0000 H   0  0  0  0  0  0  0  0  0  0  0  0
    1.0890   -1.0473    0.0000 H   0  0  0  0  0  0  0  0  0  0  0  0
    3.3007   -2.4990    0.0000 H   0  0  0  0  0  0  0  0  0  0  0  0
    3.7540   -1.7138    0.0000 H   0  0  0  0  0  0  0  0  0  0  0  0
    3.9469   -0.2223    0.0000 H   0  0  0  0  0  0  0  0  0  0  0  0
   -0.6842    0.9275    0.0000 H   0  0  0  0  0  0  0  0  0  0  0  0
   -1.4247    0.9275    0.0000 H   0  0  0  0  0  0  0  0  0  0  0  0
    1.0890    2.2527    0.0000 H   0  0  0  0  0  0  0  0  0  0  0  0
  1  2  1  0  0  0  0
  2  3  1  0  0  0  0
  2  6  1  0  0  0  0
  3  4  1  0  0  0  0
  4  5  1  0  0  0  0
  4  8  1  0  0  0  0
  5  6  1  0  0  0  0
  6  7  1  0  0  0  0
  7  8  1  0  0  0  0
  8  9  1  0  0  0  0
  9 10  4  0  0  0  0
  9 14  4  0  0  0  0
 10 11  4  0  0  0  0
 11 12  4  0  0  0  0
 11 23  1  0  0  0  0
 12 13  4  0  0  0  0
 12 16  1  0  0  0  0
 13 14  4  0  0  0  0
 14 15  1  0  0  0  0
 16 17  2  0  0  0  0
 16 18  1  0  0  0  0
 18 19  1  0  0  0  0
 18 22  2  0  0  0  0
 19 20  2  0  0  0  0
 19 21  1  0  0  0  0
 22 23  1  0  0  0  0
 23 24  1  0  0  0  0
 24 25  1  0  0  0  0
 24 26  1  0  0  0  0
 25 26  1  0  0  0  0
  1 27  1  0  0  0  0
  1 28  1  0  0  0  0
  1 29  1  0  0  0  0
 21 30  1  0  0  0  0
  4 31  1  0  0  0  0
 26 32  1  0  0  0  0
 26 33  1  0  0  0  0
  5 34  1  0  0  0  0
  5 35  1  0  0  0  0
 24 36  1  0  0  0  0
  3 37  1  0  0  0  0
  3 38  1  0  0  0  0
  6 39  1  0  0  0  0
 10 40  1  0  0  0  0
 25 41  1  0  0  0  0
 25 42  1  0  0  0  0
 22 43  1  0  0  0  0
  7 44  1  0  0  0  0
  7 45  1  0  0  0  0
 13 46  1  0  0  0  0
M  END
> <Molecule ChEMBL ID>
CHEMBL156592

> <Class(50)>
1

> <Class(80)>
1

>  <salt>
false

>  <StandardizerResult>
Tautomerize (ID: Tautomerize)
Transform (ID: Transform NO2 (1))
Aromatize (ID: Aromatize)
Wedge Clean (ID: Wedge Clean)
Clean 2D (ID: Clean2D)

$$$$
CHEMBL1230122
  Mrv2010 08032110442D          

 46 49  0  0  1  0            999 V2000
   -0.3958   -1.4856    0.0000 C   0  0  0  0  0  0  0  0  0  0  0  0
   -0.3958   -0.6606    0.0000 N   0  0  0  0  0  0  0  0  0  0  0  0
   -1.1103   -0.2481    0.0000 C   0  0  0  0  0  0  0  0  0  0  0  0
   -1.8248   -0.6606    0.0000 O   0  0  0  0  0  0  0  0  0  0  0  0
   -1.1103    0.5769    0.0000 C   0  0  0  0  0  0  0  0  0  0  0  0
   -1.8248    0.9894    0.0000 O   0  0  0  0  0  0  0  0  0  0  0  0
   -1.8248    1.8144    0.0000 C   0  0  0  0  0  0  0  0  0  0  0  0
   -2.5392    2.2269    0.0000 C   0  0  0  0  0  0  0  0  0  0  0  0
   -2.5392    3.0519    0.0000 C   0  0  0  0  0  0  0  0  0  0  0  0
   -1.8248    3.4644    0.0000 C   0  0  0  0  0  0  0  0  0  0  0  0
   -1.8248    4.2894    0.0000 F   0  0  0  0  0  0  0  0  0  0  0  0
   -1.1103    3.0519    0.0000 C   0  0  0  0  0  0  0  0  0  0  0  0
   -1.1103    2.2269    0.0000 C   0  0  0  0  0  0  0  0  0  0  0  0
   -0.3958    1.8144    0.0000 F   0  0  0  0  0  0  0  0  0  0  0  0
   -0.3958    0.9894    0.0000 C   0  0  0  0  0  0  0  0  0  0  0  0
    0.3187    0.5769    0.0000 C   0  0  0  0  0  0  0  0  0  0  0  0
    1.0331    0.9894    0.0000 C   0  0  0  0  0  0  0  0  0  0  0  0
    1.7476    0.5769    0.0000 N   0  0  0  0  0  0  0  0  0  0  0  0
    1.7476   -0.2481    0.0000 C   0  0  0  0  0  0  0  0  0  0  0  0
    2.4621   -0.6606    0.0000 N   0  0  0  0  0  0  0  0  0  0  0  0
    2.4621   -1.4856    0.0000 C   0  0  0  0  0  0  0  0  0  0  0  0
    3.1765   -1.8981    0.0000 C   0  0  0  0  0  0  0  0  0  0  0  0
    3.1765   -2.7231    0.0000 C   0  0  0  0  0  0  0  0  0  0  0  0
    2.4621   -3.1356    0.0000 O   0  0  0  0  0  0  0  0  0  0  0  0
    1.7476   -2.7231    0.0000 C   0  0  0  0  0  0  0  0  0  0  0  0
    1.7476   -1.8981    0.0000 C   0  0  0  0  0  0  0  0  0  0  0  0
    1.0331   -0.6606    0.0000 N   0  0  0  0  0  0  0  0  0  0  0  0
    0.3187   -0.2481    0.0000 C   0  0  0  0  0  0  0  0  0  0  0  0
    0.9240   -2.7711    0.0000 H   0  0  0  0  0  0  0  0  0  0  0  0
    1.2943   -3.4124    0.0000 H   0  0  0  0  0  0  0  0  0  0  0  0
    1.4456    1.7039    0.0000 H   0  0  0  0  0  0  0  0  0  0  0  0
   -1.2208   -1.4856    0.0000 H   0  0  0  0  0  0  0  0  0  0  0  0
   -0.3958   -2.3106    0.0000 H   0  0  0  0  0  0  0  0  0  0  0  0
    0.4292   -1.4856    0.0000 H   0  0  0  0  0  0  0  0  0  0  0  0
    3.6299   -3.4124    0.0000 H   0  0  0  0  0  0  0  0  0  0  0  0
    4.0002   -2.7711    0.0000 H   0  0  0  0  0  0  0  0  0  0  0  0
   -0.3958    3.4644    0.0000 H   0  0  0  0  0  0  0  0  0  0  0  0
    1.7476   -1.0731    0.0000 H   0  0  0  0  0  0  0  0  0  0  0  0
    4.0002   -1.8501    0.0000 H   0  0  0  0  0  0  0  0  0  0  0  0
    3.6299   -1.2088    0.0000 H   0  0  0  0  0  0  0  0  0  0  0  0
   -3.2537    3.4644    0.0000 H   0  0  0  0  0  0  0  0  0  0  0  0
    0.9724   -1.6159    0.0000 H   0  0  0  0  0  0  0  0  0  0  0  0
    0.9724   -2.1803    0.0000 H   0  0  0  0  0  0  0  0  0  0  0  0
   -3.2537    1.8144    0.0000 H   0  0  0  0  0  0  0  0  0  0  0  0
    0.3187    1.4019    0.0000 H   0  0  0  0  0  0  0  0  0  0  0  0
    3.1765   -0.2481    0.0000 H   0  0  0  0  0  0  0  0  0  0  0  0
  1  2  1  0  0  0  0
  2  3  1  0  0  0  0
  2 28  1  0  0  0  0
  3  4  2  0  0  0  0
  3  5  1  0  0  0  0
  5  6  1  0  0  0  0
  5 15  2  0  0  0  0
  6  7  1  0  0  0  0
  7  8  4  0  0  0  0
  7 13  4  0  0  0  0
  8  9  4  0  0  0  0
  9 10  4  0  0  0  0
 10 11  1  0  0  0  0
 10 12  4  0  0  0  0
 12 13  4  0  0  0  0
 13 14  1  0  0  0  0
 15 16  1  0  0  0  0
 16 17  4  0  0  0  0
 16 28  4  0  0  0  0
 17 18  4  0  0  0  0
 18 19  4  0  0  0  0
 19 20  1  0  0  0  0
 19 27  4  0  0  0  0
 20 21  1  0  0  0  0
 21 22  1  0  0  0  0
 21 26  1  0  0  0  0
 22 23  1  0  0  0  0
 23 24  1  0  0  0  0
 24 25  1  0  0  0  0
 25 26  1  0  0  0  0
 27 28  4  0  0  0  0
 25 29  1  0  0  0  0
 25 30  1  0  0  0  0
 17 31  1  0  0  0  0
  1 32  1  0  0  0  0
  1 33  1  0  0  0  0
  1 34  1  0  0  0  0
 23 35  1  0  0  0  0
 23 36  1  0  0  0  0
 12 37  1  0  0  0  0
 21 38  1  0  0  0  0
 22 39  1  0  0  0  0
 22 40  1  0  0  0  0
  9 41  1  0  0  0  0
 26 42  1  0  0  0  0
 26 43  1  0  0  0  0
  8 44  1  0  0  0  0
 15 45  1  0  0  0  0
 20 46  1  0  0  0  0
M  END
> <Molecule ChEMBL ID>
CHEMBL1230122

> <Class(50)>
1

> <Class(80)>
1

>  <salt>
false

>  <StandardizerResult>
Tautomerize (ID: Tautomerize)
Transform (ID: Transform NO2 (1))
Aromatize (ID: Aromatize)
Wedge Clean (ID: Wedge Clean)
Clean 2D (ID: Clean2D)

$$$$
CHEMBL1628564
  Mrv2010 08032110442D          

 55 57  0  0  1  0            999 V2000
    3.4820    3.4129    0.0000 C   0  0  0  0  0  0  0  0  0  0  0  0
    3.4820    4.2379    0.0000 N   0  0  0  0  0  0  0  0  0  0  0  0
    2.7675    4.6504    0.0000 C   0  0  0  0  0  0  0  0  0  0  0  0
    2.0531    4.2379    0.0000 C   0  0  0  0  0  0  0  0  0  0  0  0
    1.3386    4.6504    0.0000 O   0  0  0  0  0  0  0  0  0  0  0  0
    0.6241    4.2379    0.0000 C   0  0  0  0  0  0  0  0  0  0  0  0
    0.6241    3.4129    0.0000 C   0  0  0  0  0  0  0  0  0  0  0  0
   -0.0904    3.0004    0.0000 C   0  0  0  0  0  0  0  0  0  0  0  0
   -0.8048    3.4129    0.0000 C   0  0  0  0  0  0  0  0  0  0  0  0
   -1.5193    3.0004    0.0000 C   0  0  0  0  0  0  0  0  0  0  0  0
   -1.5193    2.1754    0.0000 C   0  0  0  0  0  0  0  0  0  0  0  0
   -2.2338    1.7629    0.0000 C   0  0  0  0  0  0  0  0  0  0  0  0
   -2.9482    2.1754    0.0000 C   0  0  0  0  0  0  0  0  0  0  0  0
   -2.9482    3.0004    0.0000 C   0  0  0  0  0  0  0  0  0  0  0  0
   -2.2338    3.4129    0.0000 C   0  0  0  0  0  0  0  0  0  0  0  0
   -3.7329    3.2554    0.0000 O   0  0  0  0  0  0  0  0  0  0  0  0
   -4.2178    2.5879    0.0000 C   0  0  0  0  0  0  0  0  0  0  0  0
   -3.7329    1.9205    0.0000 O   0  0  0  0  0  0  0  0  0  0  0  0
   -0.8048    4.2379    0.0000 C   0  0  0  0  0  0  0  0  0  0  0  0
   -0.0904    4.6504    0.0000 C   0  0  0  0  0  0  0  0  0  0  0  0
   -0.0904    5.4754    0.0000 C   0  0  0  0  0  0  0  0  0  0  0  0
   -0.0904    6.3004    0.0000 C   0  0  0  0  0  0  0  0  0  0  0  0
   -0.9154    5.4754    0.0000 C   0  0  0  0  0  0  0  0  0  0  0  0
    0.7346    5.4754    0.0000 C   0  0  0  0  0  0  0  0  0  0  0  0
    4.1965    4.6504    0.0000 C   0  0  0  0  0  0  0  0  0  0  0  0
    4.9109    4.2379    0.0000 C   0  0  0  0  0  0  0  0  0  0  0  0
    5.6254    4.6504    0.0000 O   0  0  0  0  0  0  0  0  0  0  0  0
    4.9109    3.4129    0.0000 O   0  0  0  0  0  0  0  0  0  0  0  0
    0.7346    6.3004    0.0000 H   0  0  0  0  0  0  0  0  0  0  0  0
   -0.0904    7.1254    0.0000 H   0  0  0  0  0  0  0  0  0  0  0  0
   -0.9154    6.3004    0.0000 H   0  0  0  0  0  0  0  0  0  0  0  0
   -4.9462    2.9752    0.0000 H   0  0  0  0  0  0  0  0  0  0  0  0
   -4.9462    2.2006    0.0000 H   0  0  0  0  0  0  0  0  0  0  0  0
    1.3386    3.0004    0.0000 H   0  0  0  0  0  0  0  0  0  0  0  0
    2.6570    3.4129    0.0000 H   0  0  0  0  0  0  0  0  0  0  0  0
    3.4820    2.5879    0.0000 H   0  0  0  0  0  0  0  0  0  0  0  0
    4.3070    3.4129    0.0000 H   0  0  0  0  0  0  0  0  0  0  0  0
    1.6828    3.5007    0.0000 H   0  0  0  0  0  0  0  0  0  0  0  0
    2.4233    3.5007    0.0000 H   0  0  0  0  0  0  0  0  0  0  0  0
    4.5667    5.3877    0.0000 H   0  0  0  0  0  0  0  0  0  0  0  0
    3.8262    5.3877    0.0000 H   0  0  0  0  0  0  0  0  0  0  0  0
    0.4189    4.7132    0.0000 H   0  0  0  0  0  0  0  0  0  0  0  0
    1.3180    4.8921    0.0000 H   0  0  0  0  0  0  0  0  0  0  0  0
    1.4968    5.7911    0.0000 H   0  0  0  0  0  0  0  0  0  0  0  0
    5.4943    2.8296    0.0000 H   0  0  0  0  0  0  0  0  0  0  0  0
   -2.2338    4.2379    0.0000 H   0  0  0  0  0  0  0  0  0  0  0  0
   -1.6776    5.7911    0.0000 H   0  0  0  0  0  0  0  0  0  0  0  0
   -1.4987    4.8921    0.0000 H   0  0  0  0  0  0  0  0  0  0  0  0
   -0.5996    4.7132    0.0000 H   0  0  0  0  0  0  0  0  0  0  0  0
   -0.0904    2.1754    0.0000 H   0  0  0  0  0  0  0  0  0  0  0  0
   -0.8048    1.7629    0.0000 H   0  0  0  0  0  0  0  0  0  0  0  0
    3.1378    5.3877    0.0000 H   0  0  0  0  0  0  0  0  0  0  0  0
    2.3973    5.3877    0.0000 H   0  0  0  0  0  0  0  0  0  0  0  0
   -2.2338    0.9379    0.0000 H   0  0  0  0  0  0  0  0  0  0  0  0
   -1.5193    4.6504    0.0000 H   0  0  0  0  0  0  0  0  0  0  0  0
  1  2  1  0  0  0  0
  2  3  1  0  0  0  0
  2 25  1  0  0  0  0
  3  4  1  0  0  0  0
  4  5  1  0  0  0  0
  5  6  1  0  0  0  0
  6  7  4  0  0  0  0
  6 20  4  0  0  0  0
  7  8  4  0  0  0  0
  8  9  4  0  0  0  0
  9 10  1  0  0  0  0
  9 19  4  0  0  0  0
 10 11  4  0  0  0  0
 10 15  4  0  0  0  0
 11 12  4  0  0  0  0
 12 13  4  0  0  0  0
 13 14  4  0  0  0  0
 13 18  1  0  0  0  0
 14 15  4  0  0  0  0
 14 16  1  0  0  0  0
 16 17  1  0  0  0  0
 17 18  1  0  0  0  0
 19 20  4  0  0  0  0
 20 21  1  0  0  0  0
 21 22  1  0  0  0  0
 21 23  1  0  0  0  0
 21 24  1  0  0  0  0
 25 26  1  0  0  0  0
 26 27  2  0  0  0  0
 26 28  1  0  0  0  0
 22 29  1  0  0  0  0
 22 30  1  0  0  0  0
 22 31  1  0  0  0  0
 17 32  1  0  0  0  0
 17 33  1  0  0  0  0
  7 34  1  0  0  0  0
  1 35  1  0  0  0  0
  1 36  1  0  0  0  0
  1 37  1  0  0  0  0
  4 38  1  0  0  0  0
  4 39  1  0  0  0  0
 25 40  1  0  0  0  0
 25 41  1  0  0  0  0
 24 42  1  0  0  0  0
 24 43  1  0  0  0  0
 24 44  1  0  0  0  0
 28 45  1  0  0  0  0
 15 46  1  0  0  0  0
 23 47  1  0  0  0  0
 23 48  1  0  0  0  0
 23 49  1  0  0  0  0
  8 50  1  0  0  0  0
 11 51  1  0  0  0  0
  3 52  1  0  0  0  0
  3 53  1  0  0  0  0
 12 54  1  0  0  0  0
 19 55  1  0  0  0  0
M  END
> <Molecule ChEMBL ID>
CHEMBL1628564

> <Class(50)>
1

> <Class(80)>
1

>  <salt>
false

>  <StandardizerResult>
Tautomerize (ID: Tautomerize)
Transform (ID: Transform NO2 (1))
Aromatize (ID: Aromatize)
Wedge Clean (ID: Wedge Clean)
Clean 2D (ID: Clean2D)

$$$$
CHEMBL1339149
  Mrv2010 08032110442D          

 36 38  0  0  0  0            999 V2000
   -2.2531   -4.1074    0.0000 C   0  0  0  0  0  0  0  0  0  0  0  0
   -1.4281   -4.1074    0.0000 N   0  0  0  0  0  0  0  0  0  0  0  0
   -1.0156   -4.8219    0.0000 C   0  0  0  0  0  0  0  0  0  0  0  0
   -1.0156   -3.3930    0.0000 S   0  0  0  0  0  0  0  0  0  0  0  0
   -0.3011   -3.8055    0.0000 O   0  0  0  0  0  0  0  0  0  0  0  0
   -1.7300   -2.9805    0.0000 O   0  0  0  0  0  0  0  0  0  0  0  0
   -0.6031   -2.6785    0.0000 C   0  0  0  0  0  0  0  0  0  0  0  0
   -1.0156   -1.9640    0.0000 C   0  0  0  0  0  0  0  0  0  0  0  0
   -0.6031   -1.2496    0.0000 C   0  0  0  0  0  0  0  0  0  0  0  0
    0.2219   -1.2496    0.0000 C   0  0  0  0  0  0  0  0  0  0  0  0
    0.6344   -1.9640    0.0000 C   0  0  0  0  0  0  0  0  0  0  0  0
    1.4594   -1.9640    0.0000 N   0  0  0  0  0  0  0  0  0  0  0  0
    1.9444   -1.2966    0.0000 S   0  0  0  0  0  0  0  0  0  0  0  0
    2.7290   -1.5515    0.0000 C   0  0  0  0  0  0  0  0  0  0  0  0
    3.4435   -1.1390    0.0000 C   0  0  0  0  0  0  0  0  0  0  0  0
    4.1579   -1.5515    0.0000 C   0  0  0  0  0  0  0  0  0  0  0  0
    4.1579   -2.3765    0.0000 C   0  0  0  0  0  0  0  0  0  0  0  0
    3.4435   -2.7890    0.0000 C   0  0  0  0  0  0  0  0  0  0  0  0
    2.7290   -2.3765    0.0000 C   0  0  0  0  0  0  0  0  0  0  0  0
    1.9444   -2.6315    0.0000 C   0  0  0  0  0  0  0  0  0  0  0  0
    1.6894   -3.4161    0.0000 O   0  0  0  0  0  0  0  0  0  0  0  0
    0.2219   -2.6785    0.0000 C   0  0  0  0  0  0  0  0  0  0  0  0
    3.4435   -0.3140    0.0000 H   0  0  0  0  0  0  0  0  0  0  0  0
    3.4435   -3.6140    0.0000 H   0  0  0  0  0  0  0  0  0  0  0  0
    0.6344   -0.5351    0.0000 H   0  0  0  0  0  0  0  0  0  0  0  0
   -2.2531   -3.2824    0.0000 H   0  0  0  0  0  0  0  0  0  0  0  0
   -3.0781   -4.1074    0.0000 H   0  0  0  0  0  0  0  0  0  0  0  0
   -2.2531   -4.9324    0.0000 H   0  0  0  0  0  0  0  0  0  0  0  0
    4.8724   -1.1390    0.0000 H   0  0  0  0  0  0  0  0  0  0  0  0
   -1.7300   -5.2344    0.0000 H   0  0  0  0  0  0  0  0  0  0  0  0
   -0.6031   -5.5364    0.0000 H   0  0  0  0  0  0  0  0  0  0  0  0
   -0.3011   -4.4094    0.0000 H   0  0  0  0  0  0  0  0  0  0  0  0
   -1.0156   -0.5351    0.0000 H   0  0  0  0  0  0  0  0  0  0  0  0
    0.6344   -3.3930    0.0000 H   0  0  0  0  0  0  0  0  0  0  0  0
    4.8724   -2.7890    0.0000 H   0  0  0  0  0  0  0  0  0  0  0  0
   -1.8406   -1.9640    0.0000 H   0  0  0  0  0  0  0  0  0  0  0  0
  1  2  1  0  0  0  0
  2  3  1  0  0  0  0
  2  4  1  0  0  0  0
  4  5  2  0  0  0  0
  4  6  2  0  0  0  0
  4  7  1  0  0  0  0
  7  8  4  0  0  0  0
  7 22  4  0  0  0  0
  8  9  4  0  0  0  0
  9 10  4  0  0  0  0
 10 11  4  0  0  0  0
 11 12  1  0  0  0  0
 11 22  4  0  0  0  0
 12 13  1  0  0  0  0
 12 20  1  0  0  0  0
 13 14  1  0  0  0  0
 14 15  4  0  0  0  0
 14 19  4  0  0  0  0
 15 16  4  0  0  0  0
 16 17  4  0  0  0  0
 17 18  4  0  0  0  0
 18 19  4  0  0  0  0
 19 20  1  0  0  0  0
 20 21  2  0  0  0  0
 15 23  1  0  0  0  0
 18 24  1  0  0  0  0
 10 25  1  0  0  0  0
  1 26  1  0  0  0  0
  1 27  1  0  0  0  0
  1 28  1  0  0  0  0
 16 29  1  0  0  0  0
  3 30  1  0  0  0  0
  3 31  1  0  0  0  0
  3 32  1  0  0  0  0
  9 33  1  0  0  0  0
 22 34  1  0  0  0  0
 17 35  1  0  0  0  0
  8 36  1  0  0  0  0
M  END
> <Molecule ChEMBL ID>
CHEMBL1339149

> <Class(50)>
1

> <Class(80)>
1

>  <salt>
false

>  <StandardizerResult>
Tautomerize (ID: Tautomerize)
Neutralize (ID: Neutralize)
Aromatize (ID: Aromatize)
Wedge Clean (ID: Wedge Clean)
Clean 2D (ID: Clean2D)

$$$$
CHEMBL488755
  Mrv2010 08032110442D          

 44 47  0  0  1  0            999 V2000
   -1.3680   -6.0078    0.0000 C   0  0  0  0  0  0  0  0  0  0  0  0
   -1.2381   -5.1931    0.0000 N   0  0  0  0  0  0  0  0  0  0  0  0
   -1.8787   -4.6733    0.0000 C   0  0  0  0  0  0  0  0  0  0  0  0
   -0.4675   -4.8983    0.0000 C   0  0  0  0  0  0  0  0  0  0  0  0
   -0.3376   -4.0836    0.0000 C   0  0  0  0  0  0  0  0  0  0  0  0
    0.4329   -3.7887    0.0000 N   0  0  0  0  0  0  0  0  0  0  0  0
    0.5628   -2.9740    0.0000 C   0  0  0  0  0  0  0  0  0  0  0  0
    1.3333   -2.6792    0.0000 N   0  0  0  0  0  0  0  0  0  0  0  0
    1.4632   -1.8645    0.0000 C   0  0  0  0  0  0  0  0  0  0  0  0
    2.2338   -1.5697    0.0000 C   0  0  0  0  0  0  0  0  0  0  0  0
    2.3637   -0.7549    0.0000 C   0  0  0  0  0  0  0  0  0  0  0  0
    3.1342   -0.4601    0.0000 O   0  0  0  0  0  0  0  0  0  0  0  0
    1.7231   -0.2351    0.0000 C   0  0  0  0  0  0  0  0  0  0  0  0
    0.9526   -0.5299    0.0000 C   0  0  0  0  0  0  0  0  0  0  0  0
    0.8226   -1.3446    0.0000 C   0  0  0  0  0  0  0  0  0  0  0  0
    0.0521   -1.6395    0.0000 C   0  0  0  0  0  0  0  0  0  0  0  0
   -0.0778   -2.4542    0.0000 C   0  0  0  0  0  0  0  0  0  0  0  0
   -0.8928   -2.5824    0.0000 C   0  0  0  0  0  0  0  0  0  0  0  0
   -1.2681   -3.3171    0.0000 O   0  0  0  0  0  0  0  0  0  0  0  0
   -1.2665   -1.8469    0.0000 C   0  0  0  0  0  0  0  0  0  0  0  0
   -2.0632   -1.6325    0.0000 C   0  0  0  0  0  0  0  0  0  0  0  0
   -2.2759   -0.8354    0.0000 C   0  0  0  0  0  0  0  0  0  0  0  0
   -1.6919   -0.2527    0.0000 C   0  0  0  0  0  0  0  0  0  0  0  0
   -0.8952   -0.4670    0.0000 C   0  0  0  0  0  0  0  0  0  0  0  0
   -0.6826   -1.2642    0.0000 C   0  0  0  0  0  0  0  0  0  0  0  0
   -0.6768   -3.3315    0.0000 H   0  0  0  0  0  0  0  0  0  0  0  0
   -1.1434   -3.9065    0.0000 H   0  0  0  0  0  0  0  0  0  0  0  0
    1.0735   -4.3086    0.0000 H   0  0  0  0  0  0  0  0  0  0  0  0
    2.8744   -2.0895    0.0000 H   0  0  0  0  0  0  0  0  0  0  0  0
   -1.3588   -4.0327    0.0000 H   0  0  0  0  0  0  0  0  0  0  0  0
   -2.5193   -4.1534    0.0000 H   0  0  0  0  0  0  0  0  0  0  0  0
   -2.3985   -5.3139    0.0000 H   0  0  0  0  0  0  0  0  0  0  0  0
   -3.0725   -0.6211    0.0000 H   0  0  0  0  0  0  0  0  0  0  0  0
   -2.1827   -5.8779    0.0000 H   0  0  0  0  0  0  0  0  0  0  0  0
   -1.4979   -6.8225    0.0000 H   0  0  0  0  0  0  0  0  0  0  0  0
   -0.5533   -6.1378    0.0000 H   0  0  0  0  0  0  0  0  0  0  0  0
   -0.1284   -5.6504    0.0000 H   0  0  0  0  0  0  0  0  0  0  0  0
    0.3382   -5.0754    0.0000 H   0  0  0  0  0  0  0  0  0  0  0  0
    1.8530    0.5796    0.0000 H   0  0  0  0  0  0  0  0  0  0  0  0
   -2.6472   -2.2153    0.0000 H   0  0  0  0  0  0  0  0  0  0  0  0
   -1.9046    0.5444    0.0000 H   0  0  0  0  0  0  0  0  0  0  0  0
   -0.3113    0.1157    0.0000 H   0  0  0  0  0  0  0  0  0  0  0  0
    3.7748   -0.9800    0.0000 H   0  0  0  0  0  0  0  0  0  0  0  0
    0.3120   -0.0101    0.0000 H   0  0  0  0  0  0  0  0  0  0  0  0
  1  2  1  0  0  0  0
  2  3  1  0  0  0  0
  2  4  1  0  0  0  0
  4  5  1  0  0  0  0
  5  6  1  0  0  0  0
  6  7  1  0  0  0  0
  7  8  4  0  0  0  0
  7 17  4  0  0  0  0
  8  9  4  0  0  0  0
  9 10  4  0  0  0  0
  9 15  4  0  0  0  0
 10 11  4  0  0  0  0
 11 12  1  0  0  0  0
 11 13  4  0  0  0  0
 13 14  4  0  0  0  0
 14 15  4  0  0  0  0
 15 16  4  0  0  0  0
 16 17  4  0  0  0  0
 16 25  1  0  0  0  0
 17 18  1  0  0  0  0
 18 19  2  0  0  0  0
 18 20  1  0  0  0  0
 20 21  4  0  0  0  0
 20 25  4  0  0  0  0
 21 22  4  0  0  0  0
 22 23  4  0  0  0  0
 23 24  4  0  0  0  0
 24 25  4  0  0  0  0
  5 26  1  0  0  0  0
  5 27  1  0  0  0  0
  6 28  1  0  0  0  0
 10 29  1  0  0  0  0
  3 30  1  0  0  0  0
  3 31  1  0  0  0  0
  3 32  1  0  0  0  0
 22 33  1  0  0  0  0
  1 34  1  0  0  0  0
  1 35  1  0  0  0  0
  1 36  1  0  0  0  0
  4 37  1  0  0  0  0
  4 38  1  0  0  0  0
 13 39  1  0  0  0  0
 21 40  1  0  0  0  0
 23 41  1  0  0  0  0
 24 42  1  0  0  0  0
 12 43  1  0  0  0  0
 14 44  1  0  0  0  0
M  END
> <Molecule ChEMBL ID>
CHEMBL488755

> <Class(50)>
1

> <Class(80)>
1

>  <salt>
false

>  <StandardizerResult>
Tautomerize (ID: Tautomerize)
Transform (ID: Transform NO2 (1))
Aromatize (ID: Aromatize)
Wedge Clean (ID: Wedge Clean)
Clean 2D (ID: Clean2D)

$$$$
CHEMBL120563
  Mrv2010 08032110442D          

 24 23  0  0  0  0            999 V2000
   -2.5006    1.8027    0.0000 C   0  0  0  0  0  0  0  0  0  0  0  0
   -1.7862    2.2152    0.0000 N   0  0  0  0  0  0  0  0  0  0  0  0
   -1.7862    3.0402    0.0000 C   0  0  0  0  0  0  0  0  0  0  0  0
   -1.0717    1.8027    0.0000 C   0  0  0  0  0  0  0  0  0  0  0  0
   -1.0717    0.9777    0.0000 S   0  0  0  0  0  0  0  0  0  0  0  0
   -0.3572    2.2152    0.0000 S   0  0  0  0  0  0  0  0  0  0  0  0
    0.3572    1.8027    0.0000 S   0  0  0  0  0  0  0  0  0  0  0  0
    1.0717    2.2152    0.0000 C   0  0  0  0  0  0  0  0  0  0  0  0
    1.0717    3.0402    0.0000 S   0  0  0  0  0  0  0  0  0  0  0  0
    1.7862    1.8027    0.0000 N   0  0  0  0  0  0  0  0  0  0  0  0
    2.5006    2.2152    0.0000 C   0  0  0  0  0  0  0  0  0  0  0  0
    1.7862    0.9777    0.0000 C   0  0  0  0  0  0  0  0  0  0  0  0
    0.9612    0.9777    0.0000 H   0  0  0  0  0  0  0  0  0  0  0  0
    1.7862    0.1527    0.0000 H   0  0  0  0  0  0  0  0  0  0  0  0
    2.6112    0.9777    0.0000 H   0  0  0  0  0  0  0  0  0  0  0  0
   -0.9612    3.0402    0.0000 H   0  0  0  0  0  0  0  0  0  0  0  0
   -1.7862    3.8652    0.0000 H   0  0  0  0  0  0  0  0  0  0  0  0
   -2.6112    3.0402    0.0000 H   0  0  0  0  0  0  0  0  0  0  0  0
   -2.9131    2.5171    0.0000 H   0  0  0  0  0  0  0  0  0  0  0  0
   -3.2151    1.3902    0.0000 H   0  0  0  0  0  0  0  0  0  0  0  0
   -2.0881    1.0882    0.0000 H   0  0  0  0  0  0  0  0  0  0  0  0
    2.9131    1.5007    0.0000 H   0  0  0  0  0  0  0  0  0  0  0  0
    3.2151    2.6277    0.0000 H   0  0  0  0  0  0  0  0  0  0  0  0
    2.0881    2.9296    0.0000 H   0  0  0  0  0  0  0  0  0  0  0  0
  1  2  1  0  0  0  0
  2  3  1  0  0  0  0
  2  4  1  0  0  0  0
  4  5  2  0  0  0  0
  4  6  1  0  0  0  0
  6  7  1  0  0  0  0
  7  8  1  0  0  0  0
  8  9  2  0  0  0  0
  8 10  1  0  0  0  0
 10 11  1  0  0  0  0
 10 12  1  0  0  0  0
 12 13  1  0  0  0  0
 12 14  1  0  0  0  0
 12 15  1  0  0  0  0
  3 16  1  0  0  0  0
  3 17  1  0  0  0  0
  3 18  1  0  0  0  0
  1 19  1  0  0  0  0
  1 20  1  0  0  0  0
  1 21  1  0  0  0  0
 11 22  1  0  0  0  0
 11 23  1  0  0  0  0
 11 24  1  0  0  0  0
M  END
> <Molecule ChEMBL ID>
CHEMBL120563

> <Class(50)>
1

> <Class(80)>
1

>  <salt>
false

>  <StandardizerResult>
Tautomerize (ID: Tautomerize)
Neutralize (ID: Neutralize)
Wedge Clean (ID: Wedge Clean)
Clean 2D (ID: Clean2D)

$$$$
CHEMBL571700
  Mrv2010 08032110442D          

 23 22  0  0  0  0            999 V2000
   -2.1654    2.0428    0.0000 C   0  0  0  0  0  0  0  0  0  0  0  0
   -1.4509    1.6303    0.0000 N   0  0  0  0  0  0  0  0  0  0  0  0
   -1.4509    0.8053    0.0000 C   0  0  0  0  0  0  0  0  0  0  0  0
   -0.7365    2.0428    0.0000 C   0  0  0  0  0  0  0  0  0  0  0  0
   -0.7365    2.8678    0.0000 S   0  0  0  0  0  0  0  0  0  0  0  0
   -0.0220    1.6303    0.0000 S   0  0  0  0  0  0  0  0  0  0  0  0
    0.6925    2.0428    0.0000 C   0  0  0  0  0  0  0  0  0  0  0  0
    0.6925    2.8678    0.0000 S   0  0  0  0  0  0  0  0  0  0  0  0
    1.4070    1.6303    0.0000 N   0  0  0  0  0  0  0  0  0  0  0  0
    2.1214    2.0428    0.0000 C   0  0  0  0  0  0  0  0  0  0  0  0
    1.4070    0.8053    0.0000 C   0  0  0  0  0  0  0  0  0  0  0  0
    0.5820    0.8053    0.0000 H   0  0  0  0  0  0  0  0  0  0  0  0
    1.4070   -0.0197    0.0000 H   0  0  0  0  0  0  0  0  0  0  0  0
    2.2320    0.8053    0.0000 H   0  0  0  0  0  0  0  0  0  0  0  0
   -1.7529    2.7573    0.0000 H   0  0  0  0  0  0  0  0  0  0  0  0
   -2.8799    2.4553    0.0000 H   0  0  0  0  0  0  0  0  0  0  0  0
   -2.5779    1.3283    0.0000 H   0  0  0  0  0  0  0  0  0  0  0  0
   -2.2759    0.8053    0.0000 H   0  0  0  0  0  0  0  0  0  0  0  0
   -1.4509   -0.0197    0.0000 H   0  0  0  0  0  0  0  0  0  0  0  0
   -0.6259    0.8053    0.0000 H   0  0  0  0  0  0  0  0  0  0  0  0
    2.5339    1.3283    0.0000 H   0  0  0  0  0  0  0  0  0  0  0  0
    2.8359    2.4553    0.0000 H   0  0  0  0  0  0  0  0  0  0  0  0
    1.7089    2.7573    0.0000 H   0  0  0  0  0  0  0  0  0  0  0  0
  1  2  1  0  0  0  0
  2  3  1  0  0  0  0
  2  4  1  0  0  0  0
  4  5  2  0  0  0  0
  4  6  1  0  0  0  0
  6  7  1  0  0  0  0
  7  8  2  0  0  0  0
  7  9  1  0  0  0  0
  9 10  1  0  0  0  0
  9 11  1  0  0  0  0
 11 12  1  0  0  0  0
 11 13  1  0  0  0  0
 11 14  1  0  0  0  0
  1 15  1  0  0  0  0
  1 16  1  0  0  0  0
  1 17  1  0  0  0  0
  3 18  1  0  0  0  0
  3 19  1  0  0  0  0
  3 20  1  0  0  0  0
 10 21  1  0  0  0  0
 10 22  1  0  0  0  0
 10 23  1  0  0  0  0
M  END
> <Molecule ChEMBL ID>
CHEMBL571700

> <Class(50)>
1

> <Class(80)>
1

>  <salt>
false

>  <StandardizerResult>
Tautomerize (ID: Tautomerize)
Neutralize (ID: Neutralize)
Wedge Clean (ID: Wedge Clean)
Clean 2D (ID: Clean2D)

$$$$
CHEMBL1516068
  Mrv2010 08032110442D          

 47 49  0  0  1  0            999 V2000
   -6.7225    1.7075    0.0000 Cl  0  0  0  0  0  0  0  0  0  0  0  0
   -6.0081    1.2950    0.0000 C   0  0  0  0  0  0  0  0  0  0  0  0
   -5.2936    1.7075    0.0000 C   0  0  0  0  0  0  0  0  0  0  0  0
   -4.5791    1.2950    0.0000 C   0  0  0  0  0  0  0  0  0  0  0  0
   -4.5791    0.4700    0.0000 C   0  0  0  0  0  0  0  0  0  0  0  0
   -3.8646    0.0575    0.0000 C   0  0  1  0  0  0  0  0  0  0  0  0
   -3.1502    0.4700    0.0000 O   0  0  0  0  0  0  0  0  0  0  0  0
   -2.4357    0.0575    0.0000 C   0  0  0  0  0  0  0  0  0  0  0  0
   -1.7212    0.4700    0.0000 C   0  0  0  0  0  0  0  0  0  0  0  0
   -1.0068    0.0575    0.0000 N   0  0  0  0  0  0  0  0  0  0  0  0
   -0.2923    0.4700    0.0000 C   0  0  0  0  0  0  0  0  0  0  0  0
    0.4222    0.0575    0.0000 C   0  0  0  0  0  0  0  0  0  0  0  0
    0.4222   -0.7675    0.0000 C   0  0  0  0  0  0  0  0  0  0  0  0
   -0.2923   -1.1800    0.0000 C   0  0  0  0  0  0  0  0  0  0  0  0
   -1.0068   -0.7675    0.0000 C   0  0  0  0  0  0  0  0  0  0  0  0
   -3.8646   -0.7675    0.0000 C   0  0  0  0  0  0  0  0  0  0  0  0
   -3.1502   -1.1800    0.0000 C   0  0  0  0  0  0  0  0  0  0  0  0
   -3.1502   -2.0050    0.0000 C   0  0  0  0  0  0  0  0  0  0  0  0
   -3.8646   -2.4175    0.0000 C   0  0  0  0  0  0  0  0  0  0  0  0
   -4.5791   -2.0050    0.0000 C   0  0  0  0  0  0  0  0  0  0  0  0
   -4.5791   -1.1800    0.0000 C   0  0  0  0  0  0  0  0  0  0  0  0
   -5.2936    0.0575    0.0000 C   0  0  0  0  0  0  0  0  0  0  0  0
   -6.0081    0.4700    0.0000 C   0  0  0  0  0  0  0  0  0  0  0  0
    0.8755   -1.4568    0.0000 H   0  0  0  0  0  0  0  0  0  0  0  0
    1.2458   -0.8155    0.0000 H   0  0  0  0  0  0  0  0  0  0  0  0
   -1.8304   -0.8155    0.0000 H   0  0  0  0  0  0  0  0  0  0  0  0
   -1.4601   -1.4568    0.0000 H   0  0  0  0  0  0  0  0  0  0  0  0
   -5.2936   -0.7675    0.0000 H   0  0  0  0  0  0  0  0  0  0  0  0
   -3.8646    1.7075    0.0000 H   0  0  0  0  0  0  0  0  0  0  0  0
   -0.6625   -1.9172    0.0000 H   0  0  0  0  0  0  0  0  0  0  0  0
    0.0780   -1.9172    0.0000 H   0  0  0  0  0  0  0  0  0  0  0  0
   -2.3623   -1.4248    0.0000 H   0  0  0  0  0  0  0  0  0  0  0  0
   -6.0081   -0.3550    0.0000 H   0  0  0  0  0  0  0  0  0  0  0  0
   -5.2936    2.5325    0.0000 H   0  0  0  0  0  0  0  0  0  0  0  0
   -3.8646   -3.2425    0.0000 H   0  0  0  0  0  0  0  0  0  0  0  0
   -6.8331    0.4700    0.0000 H   0  0  0  0  0  0  0  0  0  0  0  0
   -2.8060   -0.6797    0.0000 H   0  0  0  0  0  0  0  0  0  0  0  0
   -2.0654   -0.6797    0.0000 H   0  0  0  0  0  0  0  0  0  0  0  0
    0.0780    1.2073    0.0000 H   0  0  0  0  0  0  0  0  0  0  0  0
   -0.6625    1.2073    0.0000 H   0  0  0  0  0  0  0  0  0  0  0  0
   -3.8646    0.8825    0.0000 H   0  0  0  0  0  0  0  0  0  0  0  0
    1.2458    0.1055    0.0000 H   0  0  0  0  0  0  0  0  0  0  0  0
    0.8755    0.7468    0.0000 H   0  0  0  0  0  0  0  0  0  0  0  0
   -5.2936   -2.4175    0.0000 H   0  0  0  0  0  0  0  0  0  0  0  0
   -1.3510    1.2073    0.0000 H   0  0  0  0  0  0  0  0  0  0  0  0
   -2.0915    1.2073    0.0000 H   0  0  0  0  0  0  0  0  0  0  0  0
   -2.4357   -2.4175    0.0000 H   0  0  0  0  0  0  0  0  0  0  0  0
  1  2  1  0  0  0  0
  2  3  4  0  0  0  0
  2 23  4  0  0  0  0
  3  4  4  0  0  0  0
  4  5  4  0  0  0  0
  6  5  1  0  0  0  0
  5 22  4  0  0  0  0
  6  7  1  0  0  0  0
  6 16  1  0  0  0  0
  7  8  1  0  0  0  0
  8  9  1  0  0  0  0
  9 10  1  0  0  0  0
 10 11  1  0  0  0  0
 10 15  1  0  0  0  0
 11 12  1  0  0  0  0
 12 13  1  0  0  0  0
 13 14  1  0  0  0  0
 14 15  1  0  0  0  0
 16 17  4  0  0  0  0
 16 21  4  0  0  0  0
 17 18  4  0  0  0  0
 18 19  4  0  0  0  0
 19 20  4  0  0  0  0
 20 21  4  0  0  0  0
 22 23  4  0  0  0  0
 13 24  1  0  0  0  0
 13 25  1  0  0  0  0
 15 26  1  0  0  0  0
 15 27  1  0  0  0  0
 21 28  1  0  0  0  0
  4 29  1  0  0  0  0
 14 30  1  0  0  0  0
 14 31  1  0  0  0  0
 17 32  1  0  0  0  0
 22 33  1  0  0  0  0
  3 34  1  0  0  0  0
 19 35  1  0  0  0  0
 23 36  1  0  0  0  0
  8 37  1  0  0  0  0
  8 38  1  0  0  0  0
 11 39  1  0  0  0  0
 11 40  1  0  0  0  0
  6 41  1  6  0  0  0
 12 42  1  0  0  0  0
 12 43  1  0  0  0  0
 20 44  1  0  0  0  0
  9 45  1  0  0  0  0
  9 46  1  0  0  0  0
 18 47  1  0  0  0  0
M  END
> <Molecule ChEMBL ID>
CHEMBL1516068

> <Class(50)>
1

> <Class(80)>
1

>  <salt>
false

>  <StandardizerResult>
Tautomerize (ID: Tautomerize)
Transform (ID: Transform NO2 (1))
Aromatize (ID: Aromatize)
Wedge Clean (ID: Wedge Clean)
Clean 2D (ID: Clean2D)

$$$$
CHEMBL1256832
  Mrv2010 08032110442D          

 37 40  0  0  1  0            999 V2000
   -1.6634    0.1947    0.0000 O   0  0  0  0  0  0  0  0  0  0  0  0
   -0.9489   -0.2178    0.0000 C   0  0  0  0  0  0  0  0  0  0  0  0
   -0.9489   -1.0428    0.0000 C   0  0  0  0  0  0  0  0  0  0  0  0
   -0.2345   -1.4553    0.0000 C   0  0  0  0  0  0  0  0  0  0  0  0
    0.4800   -1.0428    0.0000 C   0  0  0  0  0  0  0  0  0  0  0  0
    0.4800   -0.2178    0.0000 C   0  0  0  0  0  0  0  0  0  0  0  0
   -0.2345    0.1947    0.0000 C   0  0  0  0  0  0  0  0  0  0  0  0
   -0.2345    1.0197    0.0000 O   0  0  0  0  0  0  0  0  0  0  0  0
    1.1945   -1.4553    0.0000 C   0  0  1  0  0  0  0  0  0  0  0  0
    1.9089   -1.0428    0.0000 C   0  0  0  0  0  0  0  0  0  0  0  0
    1.9089   -0.2178    0.0000 C   0  0  0  0  0  0  0  0  0  0  0  0
    2.6234    0.1947    0.0000 C   0  0  0  0  0  0  0  0  0  0  0  0
    3.3379   -0.2178    0.0000 C   0  0  0  0  0  0  0  0  0  0  0  0
    3.3379   -1.0428    0.0000 C   0  0  0  0  0  0  0  0  0  0  0  0
    2.6234   -1.4553    0.0000 C   0  0  0  0  0  0  0  0  0  0  0  0
    2.6234   -2.2803    0.0000 C   0  0  0  0  0  0  0  0  0  0  0  0
    1.9089   -2.6928    0.0000 N   0  0  0  0  0  0  0  0  0  0  0  0
    1.1945   -2.2803    0.0000 C   0  0  1  0  0  0  0  0  0  0  0  0
    0.4800   -2.6928    0.0000 C   0  0  0  0  0  0  0  0  0  0  0  0
   -0.2345   -2.2803    0.0000 C   0  0  0  0  0  0  0  0  0  0  0  0
   -1.6634   -1.4553    0.0000 H   0  0  0  0  0  0  0  0  0  0  0  0
    1.1945   -0.6303    0.0000 H   0  0  0  0  0  0  0  0  0  0  0  0
    4.0524   -1.4553    0.0000 H   0  0  0  0  0  0  0  0  0  0  0  0
    3.0768   -2.9696    0.0000 H   0  0  0  0  0  0  0  0  0  0  0  0
    3.4470   -2.3283    0.0000 H   0  0  0  0  0  0  0  0  0  0  0  0
    1.1945   -3.1053    0.0000 H   0  0  0  0  0  0  0  0  0  0  0  0
    1.9089   -3.5178    0.0000 H   0  0  0  0  0  0  0  0  0  0  0  0
   -1.0188   -2.0246    0.0000 H   0  0  0  0  0  0  0  0  0  0  0  0
   -0.9936   -2.6034    0.0000 H   0  0  0  0  0  0  0  0  0  0  0  0
   -0.1520   -3.2231    0.0000 H   0  0  0  0  0  0  0  0  0  0  0  0
    0.3367   -3.5053    0.0000 H   0  0  0  0  0  0  0  0  0  0  0  0
   -1.6634    1.0197    0.0000 H   0  0  0  0  0  0  0  0  0  0  0  0
    1.1945    0.1947    0.0000 H   0  0  0  0  0  0  0  0  0  0  0  0
    2.6234    1.0197    0.0000 H   0  0  0  0  0  0  0  0  0  0  0  0
    0.4800    1.4322    0.0000 H   0  0  0  0  0  0  0  0  0  0  0  0
    1.9089   -1.8678    0.0000 H   0  0  0  0  0  0  0  0  0  0  0  0
    4.0524    0.1947    0.0000 H   0  0  0  0  0  0  0  0  0  0  0  0
  1  2  1  0  0  0  0
  2  3  4  0  0  0  0
  2  7  4  0  0  0  0
  3  4  4  0  0  0  0
  4  5  4  0  0  0  0
  4 20  1  0  0  0  0
  5  6  4  0  0  0  0
  9  5  1  0  0  0  0
  6  7  4  0  0  0  0
  7  8  1  0  0  0  0
  9 10  1  0  0  0  0
  9 18  1  0  0  0  0
 10 11  4  0  0  0  0
 10 15  4  0  0  0  0
 11 12  4  0  0  0  0
 12 13  4  0  0  0  0
 13 14  4  0  0  0  0
 14 15  4  0  0  0  0
 15 16  1  0  0  0  0
 16 17  1  0  0  0  0
 18 17  1  0  0  0  0
 18 19  1  0  0  0  0
 19 20  1  0  0  0  0
  3 21  1  0  0  0  0
 11 22  1  0  0  0  0
 14 23  1  0  0  0  0
 16 24  1  0  0  0  0
 16 25  1  0  0  0  0
 18 26  1  6  0  0  0
 17 27  1  0  0  0  0
 20 28  1  0  0  0  0
 20 29  1  0  0  0  0
 19 30  1  0  0  0  0
 19 31  1  0  0  0  0
  1 32  1  0  0  0  0
  6 33  1  0  0  0  0
 12 34  1  0  0  0  0
  8 35  1  0  0  0  0
  9 36  1  6  0  0  0
 13 37  1  0  0  0  0
M  END
> <Molecule ChEMBL ID>
CHEMBL1256832

> <Class(50)>
1

> <Class(80)>
1

>  <salt>
true

>  <StandardizerResult>
Tautomerize (ID: Tautomerize)
Transform (ID: Transform NO2 (1))
Aromatize (ID: Aromatize)
Wedge Clean (ID: Wedge Clean)
Clean 2D (ID: Clean2D)

$$$$
CHEMBL536282
  Mrv2010 08032110442D          

 35 37  0  0  1  0            999 V2000
   -0.8432   -3.0809    0.0000 N   0  0  0  0  0  0  0  0  0  0  0  0
   -0.6716   -2.2739    0.0000 C   0  0  0  0  0  0  0  0  0  0  0  0
   -1.2847   -1.7219    0.0000 C   0  0  0  0  0  0  0  0  0  0  0  0
   -2.0917   -1.8934    0.0000 C   0  0  0  0  0  0  0  0  0  0  0  0
   -2.5042   -1.1789    0.0000 N   0  0  0  0  0  0  0  0  0  0  0  0
   -1.9522   -0.5658    0.0000 C   0  0  0  0  0  0  0  0  0  0  0  0
   -2.1237    0.2411    0.0000 S   0  0  0  0  0  0  0  0  0  0  0  0
   -1.1985   -0.9014    0.0000 N   0  0  0  0  0  0  0  0  0  0  0  0
   -0.4840   -0.4889    0.0000 C   0  0  1  0  0  0  0  0  0  0  0  0
   -0.4840    0.3361    0.0000 C   0  0  0  0  0  0  0  0  0  0  0  0
    0.2304    0.7486    0.0000 C   0  0  0  0  0  0  0  0  0  0  0  0
    0.9449    0.3361    0.0000 C   0  0  0  0  0  0  0  0  0  0  0  0
    1.6594    0.7486    0.0000 C   0  0  0  0  0  0  0  0  0  0  0  0
    1.6594    1.5736    0.0000 F   0  0  0  0  0  0  0  0  0  0  0  0
    2.3739    0.3361    0.0000 C   0  0  0  0  0  0  0  0  0  0  0  0
    2.3739   -0.4889    0.0000 C   0  0  0  0  0  0  0  0  0  0  0  0
    3.0883   -0.9014    0.0000 F   0  0  0  0  0  0  0  0  0  0  0  0
    1.6594   -0.9014    0.0000 C   0  0  0  0  0  0  0  0  0  0  0  0
    0.9449   -0.4889    0.0000 C   0  0  0  0  0  0  0  0  0  0  0  0
    0.2304   -0.9014    0.0000 C   0  0  0  0  0  0  0  0  0  0  0  0
   -0.4840   -1.3139    0.0000 H   0  0  0  0  0  0  0  0  0  0  0  0
    0.6007    1.4859    0.0000 H   0  0  0  0  0  0  0  0  0  0  0  0
   -0.1398    1.4859    0.0000 H   0  0  0  0  0  0  0  0  0  0  0  0
    0.1439   -2.3982    0.0000 H   0  0  0  0  0  0  0  0  0  0  0  0
   -0.0849   -1.6939    0.0000 H   0  0  0  0  0  0  0  0  0  0  0  0
    1.6594   -1.7264    0.0000 H   0  0  0  0  0  0  0  0  0  0  0  0
   -1.6278   -3.3358    0.0000 H   0  0  0  0  0  0  0  0  0  0  0  0
   -0.2301   -3.6329    0.0000 H   0  0  0  0  0  0  0  0  0  0  0  0
   -2.4273   -2.6471    0.0000 H   0  0  0  0  0  0  0  0  0  0  0  0
   -0.9374    1.0254    0.0000 H   0  0  0  0  0  0  0  0  0  0  0  0
   -1.3076    0.3841    0.0000 H   0  0  0  0  0  0  0  0  0  0  0  0
    3.0883    0.7486    0.0000 H   0  0  0  0  0  0  0  0  0  0  0  0
    0.8545   -1.4410    0.0000 H   0  0  0  0  0  0  0  0  0  0  0  0
    0.2304   -0.0764    0.0000 H   0  0  0  0  0  0  0  0  0  0  0  0
   -3.3247   -1.0927    0.0000 H   0  0  0  0  0  0  0  0  0  0  0  0
  1  2  1  0  0  0  0
  2  3  1  0  0  0  0
  3  4  2  0  0  0  0
  3  8  1  0  0  0  0
  4  5  1  0  0  0  0
  5  6  1  0  0  0  0
  6  7  2  0  0  0  0
  6  8  1  0  0  0  0
  9  8  1  0  0  0  0
  9 10  1  0  0  0  0
  9 20  1  0  0  0  0
 10 11  1  0  0  0  0
 11 12  1  0  0  0  0
 12 13  4  0  0  0  0
 12 19  4  0  0  0  0
 13 14  1  0  0  0  0
 13 15  4  0  0  0  0
 15 16  4  0  0  0  0
 16 17  1  0  0  0  0
 16 18  4  0  0  0  0
 18 19  4  0  0  0  0
 19 20  1  0  0  0  0
  9 21  1  6  0  0  0
 11 22  1  0  0  0  0
 11 23  1  0  0  0  0
  2 24  1  0  0  0  0
  2 25  1  0  0  0  0
 18 26  1  0  0  0  0
  1 27  1  0  0  0  0
  1 28  1  0  0  0  0
  4 29  1  0  0  0  0
 10 30  1  0  0  0  0
 10 31  1  0  0  0  0
 15 32  1  0  0  0  0
 20 33  1  0  0  0  0
 20 34  1  0  0  0  0
  5 35  1  0  0  0  0
M  END
> <Molecule ChEMBL ID>
CHEMBL536282

> <Class(50)>
1

> <Class(80)>
1

>  <salt>
true

>  <StandardizerResult>
Tautomerize (ID: Tautomerize)
Transform (ID: Transform NO2 (1))
Aromatize (ID: Aromatize)
Wedge Clean (ID: Wedge Clean)
Clean 2D (ID: Clean2D)

$$$$
CHEMBL1964991
  Mrv2010 08032110442D          

 39 41  0  0  0  0            999 V2000
   -2.1510    4.8666    0.0000 N   0  0  0  0  0  0  0  0  0  0  0  0
   -1.4365    4.4541    0.0000 C   0  0  0  0  0  0  0  0  0  0  0  0
   -0.7220    4.8666    0.0000 N   0  0  0  0  0  0  0  0  0  0  0  0
   -1.4365    3.6291    0.0000 C   0  0  0  0  0  0  0  0  0  0  0  0
   -0.7220    3.2166    0.0000 C   0  0  0  0  0  0  0  0  0  0  0  0
   -0.7220    2.3916    0.0000 C   0  0  0  0  0  0  0  0  0  0  0  0
   -1.4365    1.9791    0.0000 C   0  0  0  0  0  0  0  0  0  0  0  0
   -1.4365    1.1541    0.0000 C   0  0  0  0  0  0  0  0  0  0  0  0
   -0.7691    0.6691    0.0000 C   0  0  0  0  0  0  0  0  0  0  0  0
   -1.0240   -0.1155    0.0000 C   0  0  0  0  0  0  0  0  0  0  0  0
   -1.8490   -0.1155    0.0000 C   0  0  0  0  0  0  0  0  0  0  0  0
   -2.3339   -0.7829    0.0000 C   0  0  0  0  0  0  0  0  0  0  0  0
   -1.9984   -1.5366    0.0000 C   0  0  0  0  0  0  0  0  0  0  0  0
   -2.4833   -2.2040    0.0000 C   0  0  0  0  0  0  0  0  0  0  0  0
   -3.3038   -2.1178    0.0000 C   0  0  0  0  0  0  0  0  0  0  0  0
   -3.7887   -2.7852    0.0000 C   0  0  0  0  0  0  0  0  0  0  0  0
   -3.4531   -3.5389    0.0000 N   0  0  0  0  0  0  0  0  0  0  0  0
   -4.6092   -2.6990    0.0000 N   0  0  0  0  0  0  0  0  0  0  0  0
   -3.6393   -1.3641    0.0000 C   0  0  0  0  0  0  0  0  0  0  0  0
   -3.1544   -0.6967    0.0000 C   0  0  0  0  0  0  0  0  0  0  0  0
   -2.1039    0.6691    0.0000 O   0  0  0  0  0  0  0  0  0  0  0  0
   -2.1510    2.3916    0.0000 C   0  0  0  0  0  0  0  0  0  0  0  0
   -2.1510    3.2166    0.0000 C   0  0  0  0  0  0  0  0  0  0  0  0
   -2.8654    1.9791    0.0000 H   0  0  0  0  0  0  0  0  0  0  0  0
   -2.1510    5.6916    0.0000 H   0  0  0  0  0  0  0  0  0  0  0  0
    0.0156    0.9241    0.0000 H   0  0  0  0  0  0  0  0  0  0  0  0
   -0.0076    1.9791    0.0000 H   0  0  0  0  0  0  0  0  0  0  0  0
   -4.9447   -1.9453    0.0000 H   0  0  0  0  0  0  0  0  0  0  0  0
   -5.0941   -3.3664    0.0000 H   0  0  0  0  0  0  0  0  0  0  0  0
   -4.4598   -1.2779    0.0000 H   0  0  0  0  0  0  0  0  0  0  0  0
   -0.0076    4.4541    0.0000 H   0  0  0  0  0  0  0  0  0  0  0  0
   -0.7220    5.6916    0.0000 H   0  0  0  0  0  0  0  0  0  0  0  0
   -2.1477   -2.9577    0.0000 H   0  0  0  0  0  0  0  0  0  0  0  0
   -3.9381   -4.2064    0.0000 H   0  0  0  0  0  0  0  0  0  0  0  0
   -2.8654    3.6291    0.0000 H   0  0  0  0  0  0  0  0  0  0  0  0
   -0.5391   -0.7829    0.0000 H   0  0  0  0  0  0  0  0  0  0  0  0
   -3.4900    0.0570    0.0000 H   0  0  0  0  0  0  0  0  0  0  0  0
   -0.0076    3.6291    0.0000 H   0  0  0  0  0  0  0  0  0  0  0  0
   -1.1779   -1.6228    0.0000 H   0  0  0  0  0  0  0  0  0  0  0  0
  1  2  2  0  0  0  0
  2  3  1  0  0  0  0
  2  4  1  0  0  0  0
  4  5  4  0  0  0  0
  4 23  4  0  0  0  0
  5  6  4  0  0  0  0
  6  7  4  0  0  0  0
  7  8  1  0  0  0  0
  7 22  4  0  0  0  0
  8  9  4  0  0  0  0
  8 21  4  0  0  0  0
  9 10  4  0  0  0  0
 10 11  4  0  0  0  0
 11 12  1  0  0  0  0
 11 21  4  0  0  0  0
 12 13  4  0  0  0  0
 12 20  4  0  0  0  0
 13 14  4  0  0  0  0
 14 15  4  0  0  0  0
 15 16  1  0  0  0  0
 15 19  4  0  0  0  0
 16 17  2  0  0  0  0
 16 18  1  0  0  0  0
 19 20  4  0  0  0  0
 22 23  4  0  0  0  0
 22 24  1  0  0  0  0
  1 25  1  4  0  0  0
  9 26  1  0  0  0  0
  6 27  1  0  0  0  0
 18 28  1  0  0  0  0
 18 29  1  0  0  0  0
 19 30  1  0  0  0  0
  3 31  1  0  0  0  0
  3 32  1  0  0  0  0
 14 33  1  0  0  0  0
 17 34  1  4  0  0  0
 23 35  1  0  0  0  0
 10 36  1  0  0  0  0
 20 37  1  0  0  0  0
  5 38  1  0  0  0  0
 13 39  1  0  0  0  0
M  END
> <Molecule ChEMBL ID>
CHEMBL1964991

> <Class(50)>
1

> <Class(80)>
1

>  <salt>
true

>  <StandardizerResult>
Tautomerize (ID: Tautomerize)
Neutralize (ID: Neutralize)
Aromatize (ID: Aromatize)
Wedge Clean (ID: Wedge Clean)
Clean 2D (ID: Clean2D)

$$$$
CHEMBL1397952
  Mrv2010 08032110442D          

 56 59  0  0  1  0            999 V2000
   -4.1405   -5.9322    0.0000 C   0  0  0  0  0  0  0  0  0  0  0  0
   -3.4260   -5.5197    0.0000 C   0  0  0  0  0  0  0  0  0  0  0  0
   -3.4260   -4.6947    0.0000 O   0  0  0  0  0  0  0  0  0  0  0  0
   -2.7116   -4.2822    0.0000 C   0  0  0  0  0  0  0  0  0  0  0  0
   -2.7116   -3.4572    0.0000 C   0  0  0  0  0  0  0  0  0  0  0  0
   -1.9971   -3.0447    0.0000 C   0  0  0  0  0  0  0  0  0  0  0  0
   -1.9971   -2.2197    0.0000 C   0  0  1  0  0  0  0  0  0  0  0  0
   -2.7116   -1.8072    0.0000 N   0  0  0  0  0  0  0  0  0  0  0  0
   -2.7116   -0.9822    0.0000 C   0  0  0  0  0  0  0  0  0  0  0  0
   -3.4260   -0.5697    0.0000 C   0  0  0  0  0  0  0  0  0  0  0  0
   -3.4260    0.2553    0.0000 C   0  0  0  0  0  0  0  0  0  0  0  0
   -4.1405    0.6678    0.0000 C   0  0  0  0  0  0  0  0  0  0  0  0
   -2.7116    0.6678    0.0000 C   0  0  0  0  0  0  0  0  0  0  0  0
   -1.9971    0.2553    0.0000 C   0  0  0  0  0  0  0  0  0  0  0  0
   -1.9971   -0.5697    0.0000 N   0  0  0  0  0  0  0  0  0  0  0  0
   -1.2826   -1.8072    0.0000 C   0  0  0  0  0  0  0  0  0  0  0  0
   -1.2826   -0.9822    0.0000 C   0  0  0  0  0  0  0  0  0  0  0  0
   -0.5681   -0.5697    0.0000 C   0  0  0  0  0  0  0  0  0  0  0  0
    0.1463   -0.9822    0.0000 C   0  0  0  0  0  0  0  0  0  0  0  0
    0.8608   -0.5697    0.0000 C   0  0  0  0  0  0  0  0  0  0  0  0
    1.5753   -0.9822    0.0000 C   0  0  0  0  0  0  0  0  0  0  0  0
    1.5753   -1.8072    0.0000 C   0  0  0  0  0  0  0  0  0  0  0  0
    0.8608   -2.2197    0.0000 N   0  0  0  0  0  0  0  0  0  0  0  0
    0.1463   -1.8072    0.0000 C   0  0  0  0  0  0  0  0  0  0  0  0
   -0.5681   -2.2197    0.0000 C   0  0  0  0  0  0  0  0  0  0  0  0
   -0.5681   -3.0447    0.0000 O   0  0  0  0  0  0  0  0  0  0  0  0
   -1.2826   -3.4572    0.0000 C   0  0  0  0  0  0  0  0  0  0  0  0
   -1.2826   -4.2822    0.0000 C   0  0  0  0  0  0  0  0  0  0  0  0
   -1.9971   -4.6947    0.0000 C   0  0  0  0  0  0  0  0  0  0  0  0
   -1.9971   -5.5197    0.0000 O   0  0  0  0  0  0  0  0  0  0  0  0
   -1.2826   -5.9322    0.0000 C   0  0  0  0  0  0  0  0  0  0  0  0
   -3.7280    1.3823    0.0000 H   0  0  0  0  0  0  0  0  0  0  0  0
   -4.8550    1.0803    0.0000 H   0  0  0  0  0  0  0  0  0  0  0  0
   -4.5530   -0.0466    0.0000 H   0  0  0  0  0  0  0  0  0  0  0  0
   -1.9971   -1.3947    0.0000 H   0  0  0  0  0  0  0  0  0  0  0  0
   -1.2826    0.6678    0.0000 H   0  0  0  0  0  0  0  0  0  0  0  0
   -1.6951   -6.6466    0.0000 H   0  0  0  0  0  0  0  0  0  0  0  0
   -0.5681   -6.3447    0.0000 H   0  0  0  0  0  0  0  0  0  0  0  0
   -0.8701   -5.2177    0.0000 H   0  0  0  0  0  0  0  0  0  0  0  0
   -0.5681   -3.8697    0.0000 H   0  0  0  0  0  0  0  0  0  0  0  0
   -4.5530   -5.2177    0.0000 H   0  0  0  0  0  0  0  0  0  0  0  0
   -4.8550   -6.3447    0.0000 H   0  0  0  0  0  0  0  0  0  0  0  0
   -3.7280   -6.6466    0.0000 H   0  0  0  0  0  0  0  0  0  0  0  0
   -2.9727   -6.2089    0.0000 H   0  0  0  0  0  0  0  0  0  0  0  0
   -2.6024   -5.5676    0.0000 H   0  0  0  0  0  0  0  0  0  0  0  0
   -2.7116   -2.6322    0.0000 H   0  0  0  0  0  0  0  0  0  0  0  0
   -0.8701   -4.9966    0.0000 H   0  0  0  0  0  0  0  0  0  0  0  0
   -3.4260   -3.0447    0.0000 H   0  0  0  0  0  0  0  0  0  0  0  0
   -2.7116    1.4928    0.0000 H   0  0  0  0  0  0  0  0  0  0  0  0
   -0.5681    0.2553    0.0000 H   0  0  0  0  0  0  0  0  0  0  0  0
    2.2897   -2.2197    0.0000 H   0  0  0  0  0  0  0  0  0  0  0  0
   -3.5366   -1.8072    0.0000 H   0  0  0  0  0  0  0  0  0  0  0  0
    0.1463   -3.4572    0.0000 H   0  0  0  0  0  0  0  0  0  0  0  0
   -4.1405   -0.9822    0.0000 H   0  0  0  0  0  0  0  0  0  0  0  0
    0.8608    0.2553    0.0000 H   0  0  0  0  0  0  0  0  0  0  0  0
    2.2897   -0.5697    0.0000 H   0  0  0  0  0  0  0  0  0  0  0  0
  1  2  1  0  0  0  0
  2  3  1  0  0  0  0
  3  4  1  0  0  0  0
  4  5  4  0  0  0  0
  4 29  4  0  0  0  0
  5  6  4  0  0  0  0
  7  6  1  0  0  0  0
  6 27  4  0  0  0  0
  7  8  1  0  0  0  0
  7 16  1  0  0  0  0
  8  9  1  0  0  0  0
  9 10  4  0  0  0  0
  9 15  4  0  0  0  0
 10 11  4  0  0  0  0
 11 12  1  0  0  0  0
 11 13  4  0  0  0  0
 13 14  4  0  0  0  0
 14 15  4  0  0  0  0
 16 17  4  0  0  0  0
 16 25  4  0  0  0  0
 17 18  4  0  0  0  0
 18 19  4  0  0  0  0
 19 20  4  0  0  0  0
 19 24  4  0  0  0  0
 20 21  4  0  0  0  0
 21 22  4  0  0  0  0
 22 23  4  0  0  0  0
 23 24  4  0  0  0  0
 24 25  4  0  0  0  0
 25 26  1  0  0  0  0
 27 28  4  0  0  0  0
 28 29  4  0  0  0  0
 29 30  1  0  0  0  0
 30 31  1  0  0  0  0
 12 32  1  0  0  0  0
 12 33  1  0  0  0  0
 12 34  1  0  0  0  0
 17 35  1  0  0  0  0
 14 36  1  0  0  0  0
 31 37  1  0  0  0  0
 31 38  1  0  0  0  0
 31 39  1  0  0  0  0
 27 40  1  0  0  0  0
  1 41  1  0  0  0  0
  1 42  1  0  0  0  0
  1 43  1  0  0  0  0
  2 44  1  0  0  0  0
  2 45  1  0  0  0  0
  7 46  1  6  0  0  0
 28 47  1  0  0  0  0
  5 48  1  0  0  0  0
 13 49  1  0  0  0  0
 18 50  1  0  0  0  0
 22 51  1  0  0  0  0
  8 52  1  0  0  0  0
 26 53  1  0  0  0  0
 10 54  1  0  0  0  0
 20 55  1  0  0  0  0
 21 56  1  0  0  0  0
M  END
> <Molecule ChEMBL ID>
CHEMBL1397952

> <Class(50)>
1

> <Class(80)>
1

>  <salt>
false

>  <StandardizerResult>
Tautomerize (ID: Tautomerize)
Transform (ID: Transform NO2 (1))
Aromatize (ID: Aromatize)
Wedge Clean (ID: Wedge Clean)
Clean 2D (ID: Clean2D)

$$$$
CHEMBL331743
  Mrv2010 08032110442D          

 22 21  0  0  0  0            999 V2000
   -1.0239    1.6233    0.0000 C   0  0  0  0  0  0  0  0  0  0  0  0
   -0.3094    2.0358    0.0000 C   0  0  0  0  0  0  0  0  0  0  0  0
    0.4050    1.6233    0.0000 O   0  0  0  0  0  0  0  0  0  0  0  0
    1.1195    2.0358    0.0000 C   0  0  0  0  0  0  0  0  0  0  0  0
    1.1195    2.8608    0.0000 S   0  0  0  0  0  0  0  0  0  0  0  0
    1.8340    1.6233    0.0000 S   0  0  0  0  0  0  0  0  0  0  0  0
    2.5485    2.0358    0.0000 S   0  0  0  0  0  0  0  0  0  0  0  0
    3.2629    1.6233    0.0000 C   0  0  0  0  0  0  0  0  0  0  0  0
    3.2629    0.7983    0.0000 S   0  0  0  0  0  0  0  0  0  0  0  0
    3.9774    2.0358    0.0000 O   0  0  0  0  0  0  0  0  0  0  0  0
    4.6919    1.6233    0.0000 C   0  0  0  0  0  0  0  0  0  0  0  0
    5.4063    2.0358    0.0000 C   0  0  0  0  0  0  0  0  0  0  0  0
   -1.4364    2.3378    0.0000 H   0  0  0  0  0  0  0  0  0  0  0  0
   -1.7384    1.2108    0.0000 H   0  0  0  0  0  0  0  0  0  0  0  0
   -0.6114    0.9089    0.0000 H   0  0  0  0  0  0  0  0  0  0  0  0
    4.3216    0.8861    0.0000 H   0  0  0  0  0  0  0  0  0  0  0  0
    5.0621    0.8861    0.0000 H   0  0  0  0  0  0  0  0  0  0  0  0
    0.0608    2.7731    0.0000 H   0  0  0  0  0  0  0  0  0  0  0  0
   -0.6797    2.7731    0.0000 H   0  0  0  0  0  0  0  0  0  0  0  0
    5.8188    1.3214    0.0000 H   0  0  0  0  0  0  0  0  0  0  0  0
    6.1208    2.4483    0.0000 H   0  0  0  0  0  0  0  0  0  0  0  0
    4.9938    2.7503    0.0000 H   0  0  0  0  0  0  0  0  0  0  0  0
  1  2  1  0  0  0  0
  2  3  1  0  0  0  0
  3  4  1  0  0  0  0
  4  5  2  0  0  0  0
  4  6  1  0  0  0  0
  6  7  1  0  0  0  0
  7  8  1  0  0  0  0
  8  9  2  0  0  0  0
  8 10  1  0  0  0  0
 10 11  1  0  0  0  0
 11 12  1  0  0  0  0
  1 13  1  0  0  0  0
  1 14  1  0  0  0  0
  1 15  1  0  0  0  0
 11 16  1  0  0  0  0
 11 17  1  0  0  0  0
  2 18  1  0  0  0  0
  2 19  1  0  0  0  0
 12 20  1  0  0  0  0
 12 21  1  0  0  0  0
 12 22  1  0  0  0  0
M  END
> <Molecule ChEMBL ID>
CHEMBL331743

> <Class(50)>
1

> <Class(80)>
1

>  <salt>
false

>  <StandardizerResult>
Tautomerize (ID: Tautomerize)
Neutralize (ID: Neutralize)
Wedge Clean (ID: Wedge Clean)
Clean 2D (ID: Clean2D)

$$$$
CHEMBL1886408
  Mrv2010 08032110442D          

 34 35  0  0  0  0            999 V2000
   -3.9519    0.4134    0.0000 C   0  0  0  0  0  0  0  0  0  0  0  0
   -3.2374    0.0009    0.0000 C   0  0  0  0  0  0  0  0  0  0  0  0
   -2.5229    0.4134    0.0000 O   0  0  0  0  0  0  0  0  0  0  0  0
   -1.8085    0.0009    0.0000 C   0  0  0  0  0  0  0  0  0  0  0  0
   -1.8085   -0.8241    0.0000 O   0  0  0  0  0  0  0  0  0  0  0  0
   -1.0940    0.4134    0.0000 C   0  0  0  0  0  0  0  0  0  0  0  0
   -0.3795    0.0009    0.0000 C   0  0  0  0  0  0  0  0  0  0  0  0
    0.3349    0.4134    0.0000 C   0  0  0  0  0  0  0  0  0  0  0  0
    1.0494    0.0009    0.0000 C   0  0  0  0  0  0  0  0  0  0  0  0
    1.0494   -0.8241    0.0000 C   0  0  0  0  0  0  0  0  0  0  0  0
    1.7639   -1.2366    0.0000 C   0  0  0  0  0  0  0  0  0  0  0  0
    2.4783   -0.8241    0.0000 C   0  0  0  0  0  0  0  0  0  0  0  0
    3.1928   -1.2366    0.0000 C   0  0  0  0  0  0  0  0  0  0  0  0
    3.1928   -2.0616    0.0000 C   0  0  0  0  0  0  0  0  0  0  0  0
    2.4783   -2.4741    0.0000 C   0  0  0  0  0  0  0  0  0  0  0  0
    1.7639   -2.0616    0.0000 C   0  0  0  0  0  0  0  0  0  0  0  0
    0.3349   -1.2366    0.0000 C   0  0  0  0  0  0  0  0  0  0  0  0
   -0.3795   -0.8241    0.0000 C   0  0  0  0  0  0  0  0  0  0  0  0
   -3.5394    1.1279    0.0000 H   0  0  0  0  0  0  0  0  0  0  0  0
   -4.6664    0.8259    0.0000 H   0  0  0  0  0  0  0  0  0  0  0  0
   -4.3644   -0.3010    0.0000 H   0  0  0  0  0  0  0  0  0  0  0  0
    0.3349    1.2384    0.0000 H   0  0  0  0  0  0  0  0  0  0  0  0
    3.9073   -0.8241    0.0000 H   0  0  0  0  0  0  0  0  0  0  0  0
    0.3349   -2.0616    0.0000 H   0  0  0  0  0  0  0  0  0  0  0  0
   -3.6077   -0.7363    0.0000 H   0  0  0  0  0  0  0  0  0  0  0  0
   -2.8672   -0.7363    0.0000 H   0  0  0  0  0  0  0  0  0  0  0  0
    2.4783    0.0009    0.0000 H   0  0  0  0  0  0  0  0  0  0  0  0
    3.9073   -2.4741    0.0000 H   0  0  0  0  0  0  0  0  0  0  0  0
    2.4783   -3.2991    0.0000 H   0  0  0  0  0  0  0  0  0  0  0  0
    1.7639    0.4134    0.0000 H   0  0  0  0  0  0  0  0  0  0  0  0
    1.0494   -2.4741    0.0000 H   0  0  0  0  0  0  0  0  0  0  0  0
   -1.0940   -1.2366    0.0000 H   0  0  0  0  0  0  0  0  0  0  0  0
   -0.7237    1.1507    0.0000 H   0  0  0  0  0  0  0  0  0  0  0  0
   -1.4643    1.1507    0.0000 H   0  0  0  0  0  0  0  0  0  0  0  0
  1  2  1  0  0  0  0
  2  3  1  0  0  0  0
  3  4  1  0  0  0  0
  4  5  2  0  0  0  0
  4  6  1  0  0  0  0
  6  7  1  0  0  0  0
  7  8  4  0  0  0  0
  7 18  4  0  0  0  0
  8  9  4  0  0  0  0
  9 10  4  0  0  0  0
 10 11  1  0  0  0  0
 10 17  4  0  0  0  0
 11 12  4  0  0  0  0
 11 16  4  0  0  0  0
 12 13  4  0  0  0  0
 13 14  4  0  0  0  0
 14 15  4  0  0  0  0
 15 16  4  0  0  0  0
 17 18  4  0  0  0  0
  1 19  1  0  0  0  0
  1 20  1  0  0  0  0
  1 21  1  0  0  0  0
  8 22  1  0  0  0  0
 13 23  1  0  0  0  0
 17 24  1  0  0  0  0
  2 25  1  0  0  0  0
  2 26  1  0  0  0  0
 12 27  1  0  0  0  0
 14 28  1  0  0  0  0
 15 29  1  0  0  0  0
  9 30  1  0  0  0  0
 16 31  1  0  0  0  0
 18 32  1  0  0  0  0
  6 33  1  0  0  0  0
  6 34  1  0  0  0  0
M  END
> <Molecule ChEMBL ID>
CHEMBL1886408

> <Class(50)>
1

> <Class(80)>
1

>  <salt>
false

>  <StandardizerResult>
Tautomerize (ID: Tautomerize)
Neutralize (ID: Neutralize)
Aromatize (ID: Aromatize)
Wedge Clean (ID: Wedge Clean)
Clean 2D (ID: Clean2D)

$$$$
CHEMBL155103
  Mrv2010 08032110442D          

 27 28  0  0  0  0            999 V2000
   -2.4095   -1.3712    0.0000 C   0  0  0  0  0  0  0  0  0  0  0  0
   -1.6950   -0.9587    0.0000 C   0  0  0  0  0  0  0  0  0  0  0  0
   -0.9805   -1.3712    0.0000 O   0  0  0  0  0  0  0  0  0  0  0  0
   -0.2661   -0.9587    0.0000 C   0  0  0  0  0  0  0  0  0  0  0  0
   -0.2661   -0.1337    0.0000 O   0  0  0  0  0  0  0  0  0  0  0  0
    0.4484   -1.3712    0.0000 C   0  0  0  0  0  0  0  0  0  0  0  0
    1.1629   -0.9587    0.0000 C   0  0  0  0  0  0  0  0  0  0  0  0
    1.8773   -1.3712    0.0000 C   0  0  0  0  0  0  0  0  0  0  0  0
    2.5918   -0.9587    0.0000 C   0  0  0  0  0  0  0  0  0  0  0  0
    3.3063   -1.3712    0.0000 C   0  0  0  0  0  0  0  0  0  0  0  0
    3.3063   -2.1962    0.0000 C   0  0  0  0  0  0  0  0  0  0  0  0
    4.0208   -2.6087    0.0000 O   0  0  0  0  0  0  0  0  0  0  0  0
    2.5918   -2.6087    0.0000 C   0  0  0  0  0  0  0  0  0  0  0  0
    1.8773   -2.1962    0.0000 C   0  0  0  0  0  0  0  0  0  0  0  0
    1.1629   -2.6087    0.0000 O   0  0  0  0  0  0  0  0  0  0  0  0
    0.4484   -2.1962    0.0000 C   0  0  0  0  0  0  0  0  0  0  0  0
   -0.2661   -2.6087    0.0000 O   0  0  0  0  0  0  0  0  0  0  0  0
   -2.8220   -0.6567    0.0000 H   0  0  0  0  0  0  0  0  0  0  0  0
   -3.1240   -1.7837    0.0000 H   0  0  0  0  0  0  0  0  0  0  0  0
   -1.9970   -2.0856    0.0000 H   0  0  0  0  0  0  0  0  0  0  0  0
    1.1629   -0.1337    0.0000 H   0  0  0  0  0  0  0  0  0  0  0  0
    2.5918   -3.4337    0.0000 H   0  0  0  0  0  0  0  0  0  0  0  0
   -1.3248   -0.2214    0.0000 H   0  0  0  0  0  0  0  0  0  0  0  0
   -2.0653   -0.2214    0.0000 H   0  0  0  0  0  0  0  0  0  0  0  0
    4.0208   -0.9587    0.0000 H   0  0  0  0  0  0  0  0  0  0  0  0
    4.0208   -3.4337    0.0000 H   0  0  0  0  0  0  0  0  0  0  0  0
    2.5918   -0.1337    0.0000 H   0  0  0  0  0  0  0  0  0  0  0  0
  1  2  1  0  0  0  0
  2  3  1  0  0  0  0
  3  4  1  0  0  0  0
  4  5  2  0  0  0  0
  4  6  1  0  0  0  0
  6  7  2  0  0  0  0
  6 16  1  0  0  0  0
  7  8  1  0  0  0  0
  8  9  4  0  0  0  0
  8 14  4  0  0  0  0
  9 10  4  0  0  0  0
 10 11  4  0  0  0  0
 11 12  1  0  0  0  0
 11 13  4  0  0  0  0
 13 14  4  0  0  0  0
 14 15  1  0  0  0  0
 15 16  1  0  0  0  0
 16 17  2  0  0  0  0
  1 18  1  0  0  0  0
  1 19  1  0  0  0  0
  1 20  1  0  0  0  0
  7 21  1  0  0  0  0
 13 22  1  0  0  0  0
  2 23  1  0  0  0  0
  2 24  1  0  0  0  0
 10 25  1  0  0  0  0
 12 26  1  0  0  0  0
  9 27  1  0  0  0  0
M  END
> <Molecule ChEMBL ID>
CHEMBL155103

> <Class(50)>
1

> <Class(80)>
1

>  <salt>
false

>  <StandardizerResult>
Tautomerize (ID: Tautomerize)
Neutralize (ID: Neutralize)
Aromatize (ID: Aromatize)
Wedge Clean (ID: Wedge Clean)
Clean 2D (ID: Clean2D)

$$$$
CHEMBL566136
  Mrv2010 08032110442D          

 33 34  0  0  0  0            999 V2000
    2.5768    0.6951    0.0000 C   0  0  0  0  0  0  0  0  0  0  0  0
    1.8624    0.2826    0.0000 C   0  0  0  0  0  0  0  0  0  0  0  0
    1.8624   -0.5424    0.0000 O   0  0  0  0  0  0  0  0  0  0  0  0
    1.1479   -0.9549    0.0000 C   0  0  0  0  0  0  0  0  0  0  0  0
    0.4334   -0.5424    0.0000 O   0  0  0  0  0  0  0  0  0  0  0  0
    1.1479   -1.7799    0.0000 C   0  0  0  0  0  0  0  0  0  0  0  0
    1.8153   -2.2649    0.0000 C   0  0  0  0  0  0  0  0  0  0  0  0
    2.6000   -2.0099    0.0000 N   0  0  0  0  0  0  0  0  0  0  0  0
    1.5604   -3.0495    0.0000 S   0  0  0  0  0  0  0  0  0  0  0  0
    0.7354   -3.0495    0.0000 C   0  0  0  0  0  0  0  0  0  0  0  0
    0.2505   -3.7169    0.0000 C   0  0  0  0  0  0  0  0  0  0  0  0
    0.5860   -4.4706    0.0000 C   0  0  0  0  0  0  0  0  0  0  0  0
    0.1011   -5.1380    0.0000 C   0  0  0  0  0  0  0  0  0  0  0  0
   -0.7194   -5.0518    0.0000 C   0  0  0  0  0  0  0  0  0  0  0  0
   -1.0549   -4.2981    0.0000 C   0  0  0  0  0  0  0  0  0  0  0  0
   -0.5700   -3.6307    0.0000 C   0  0  0  0  0  0  0  0  0  0  0  0
    0.4805   -2.2649    0.0000 C   0  0  0  0  0  0  0  0  0  0  0  0
   -0.3042   -2.0099    0.0000 C   0  0  0  0  0  0  0  0  0  0  0  0
   -1.8754   -4.2119    0.0000 H   0  0  0  0  0  0  0  0  0  0  0  0
    3.2131   -2.5620    0.0000 H   0  0  0  0  0  0  0  0  0  0  0  0
    2.7715   -1.2030    0.0000 H   0  0  0  0  0  0  0  0  0  0  0  0
   -1.2043   -5.7192    0.0000 H   0  0  0  0  0  0  0  0  0  0  0  0
   -0.9056   -2.8770    0.0000 H   0  0  0  0  0  0  0  0  0  0  0  0
    0.4367   -5.8917    0.0000 H   0  0  0  0  0  0  0  0  0  0  0  0
    2.9893   -0.0194    0.0000 H   0  0  0  0  0  0  0  0  0  0  0  0
    3.2913    1.1076    0.0000 H   0  0  0  0  0  0  0  0  0  0  0  0
    2.1643    1.4095    0.0000 H   0  0  0  0  0  0  0  0  0  0  0  0
    1.4090    0.9718    0.0000 H   0  0  0  0  0  0  0  0  0  0  0  0
    1.0388    0.3305    0.0000 H   0  0  0  0  0  0  0  0  0  0  0  0
    1.4065   -4.5568    0.0000 H   0  0  0  0  0  0  0  0  0  0  0  0
   -0.0492   -1.2253    0.0000 H   0  0  0  0  0  0  0  0  0  0  0  0
   -1.0888   -1.7550    0.0000 H   0  0  0  0  0  0  0  0  0  0  0  0
   -0.5591   -2.7945    0.0000 H   0  0  0  0  0  0  0  0  0  0  0  0
  1  2  1  0  0  0  0
  2  3  1  0  0  0  0
  3  4  1  0  0  0  0
  4  5  2  0  0  0  0
  4  6  1  0  0  0  0
  6  7  4  0  0  0  0
  6 17  4  0  0  0  0
  7  8  1  0  0  0  0
  7  9  4  0  0  0  0
  9 10  4  0  0  0  0
 10 11  1  0  0  0  0
 10 17  4  0  0  0  0
 11 12  4  0  0  0  0
 11 16  4  0  0  0  0
 12 13  4  0  0  0  0
 13 14  4  0  0  0  0
 14 15  4  0  0  0  0
 15 16  4  0  0  0  0
 17 18  1  0  0  0  0
 15 19  1  0  0  0  0
  8 20  1  0  0  0  0
  8 21  1  0  0  0  0
 14 22  1  0  0  0  0
 16 23  1  0  0  0  0
 13 24  1  0  0  0  0
  1 25  1  0  0  0  0
  1 26  1  0  0  0  0
  1 27  1  0  0  0  0
  2 28  1  0  0  0  0
  2 29  1  0  0  0  0
 12 30  1  0  0  0  0
 18 31  1  0  0  0  0
 18 32  1  0  0  0  0
 18 33  1  0  0  0  0
M  END
> <Molecule ChEMBL ID>
CHEMBL566136

> <Class(50)>
1

> <Class(80)>
1

>  <salt>
false

>  <StandardizerResult>
Tautomerize (ID: Tautomerize)
Neutralize (ID: Neutralize)
Aromatize (ID: Aromatize)
Wedge Clean (ID: Wedge Clean)
Clean 2D (ID: Clean2D)

$$$$
CHEMBL3894518
  Mrv2010 08032110442D          

 65 68  0  0  0  0            999 V2000
    0.9732   -1.1564    0.0000 C   0  0  0  0  0  0  0  0  0  0  0  0
    1.6877   -1.5689    0.0000 C   0  0  0  0  0  0  0  0  0  0  0  0
    1.6877   -2.3939    0.0000 N   0  0  0  0  0  0  0  0  0  0  0  0
    2.3551   -2.8789    0.0000 N   0  0  0  0  0  0  0  0  0  0  0  0
    2.1002   -3.6635    0.0000 C   0  0  0  0  0  0  0  0  0  0  0  0
    2.5851   -4.3309    0.0000 C   0  0  0  0  0  0  0  0  0  0  0  0
    3.4056   -4.2447    0.0000 C   0  0  0  0  0  0  0  0  0  0  0  0
    3.8905   -4.9121    0.0000 C   0  0  0  0  0  0  0  0  0  0  0  0
    3.5550   -5.6658    0.0000 N   0  0  0  0  0  0  0  0  0  0  0  0
    4.0399   -6.3332    0.0000 C   0  0  0  0  0  0  0  0  0  0  0  0
    4.8604   -6.2470    0.0000 O   0  0  0  0  0  0  0  0  0  0  0  0
    3.7043   -7.0869    0.0000 C   0  0  0  0  0  0  0  0  0  0  0  0
    4.1892   -7.7543    0.0000 C   0  0  0  0  0  0  0  0  0  0  0  0
    3.8537   -8.5080    0.0000 O   0  0  0  0  0  0  0  0  0  0  0  0
    2.7345   -5.7520    0.0000 C   0  0  0  0  0  0  0  0  0  0  0  0
    2.2495   -5.0846    0.0000 C   0  0  0  0  0  0  0  0  0  0  0  0
    1.2752   -3.6635    0.0000 N   0  0  0  0  0  0  0  0  0  0  0  0
    1.0202   -2.8789    0.0000 C   0  0  0  0  0  0  0  0  0  0  0  0
    0.2356   -2.6239    0.0000 C   0  0  0  0  0  0  0  0  0  0  0  0
   -0.3775   -3.1759    0.0000 C   0  0  0  0  0  0  0  0  0  0  0  0
   -1.1621   -2.9210    0.0000 N   0  0  0  0  0  0  0  0  0  0  0  0
   -1.3336   -2.1140    0.0000 C   0  0  0  0  0  0  0  0  0  0  0  0
   -2.1182   -1.8591    0.0000 N   0  0  0  0  0  0  0  0  0  0  0  0
   -0.7205   -1.5620    0.0000 C   0  0  0  0  0  0  0  0  0  0  0  0
   -0.8921   -0.7550    0.0000 C   0  0  0  0  0  0  0  0  0  0  0  0
   -1.6457   -0.4195    0.0000 N   0  0  0  0  0  0  0  0  0  0  0  0
   -1.5595    0.4010    0.0000 N   0  0  0  0  0  0  0  0  0  0  0  0
   -0.7525    0.5725    0.0000 C   0  0  0  0  0  0  0  0  0  0  0  0
   -0.4170    1.3262    0.0000 C   0  0  0  0  0  0  0  0  0  0  0  0
   -0.0814    2.0799    0.0000 C   0  0  0  0  0  0  0  0  0  0  0  0
    0.3367    0.9906    0.0000 C   0  0  0  0  0  0  0  0  0  0  0  0
   -1.1706    1.6618    0.0000 C   0  0  0  0  0  0  0  0  0  0  0  0
   -0.3400   -0.1419    0.0000 O   0  0  0  0  0  0  0  0  0  0  0  0
    0.0641   -1.8169    0.0000 N   0  0  0  0  0  0  0  0  0  0  0  0
    3.0332   -8.5943    0.0000 H   0  0  0  0  0  0  0  0  0  0  0  0
    4.6624   -5.2033    0.0000 H   0  0  0  0  0  0  0  0  0  0  0  0
    4.5850   -4.4668    0.0000 H   0  0  0  0  0  0  0  0  0  0  0  0
   -0.2059   -3.9829    0.0000 H   0  0  0  0  0  0  0  0  0  0  0  0
    4.0437   -3.7218    0.0000 H   0  0  0  0  0  0  0  0  0  0  0  0
    3.3672   -3.4206    0.0000 H   0  0  0  0  0  0  0  0  0  0  0  0
    2.5113   -1.5210    0.0000 H   0  0  0  0  0  0  0  0  0  0  0  0
    2.1410   -0.8797    0.0000 H   0  0  0  0  0  0  0  0  0  0  0  0
    1.3857   -0.4420    0.0000 H   0  0  0  0  0  0  0  0  0  0  0  0
    0.2587   -0.7439    0.0000 H   0  0  0  0  0  0  0  0  0  0  0  0
    0.5607   -1.8709    0.0000 H   0  0  0  0  0  0  0  0  0  0  0  0
    1.4565   -5.3120    0.0000 H   0  0  0  0  0  0  0  0  0  0  0  0
    1.7882   -5.7685    0.0000 H   0  0  0  0  0  0  0  0  0  0  0  0
    0.6723    1.7443    0.0000 H   0  0  0  0  0  0  0  0  0  0  0  0
    0.2542    2.8336    0.0000 H   0  0  0  0  0  0  0  0  0  0  0  0
   -0.8351    2.4154    0.0000 H   0  0  0  0  0  0  0  0  0  0  0  0
   -1.7385    2.2602    0.0000 H   0  0  0  0  0  0  0  0  0  0  0  0
   -1.9408    1.3661    0.0000 H   0  0  0  0  0  0  0  0  0  0  0  0
   -1.1922    0.8370    0.0000 H   0  0  0  0  0  0  0  0  0  0  0  0
    1.7646   -4.4172    0.0000 H   0  0  0  0  0  0  0  0  0  0  0  0
    4.9612   -8.0455    0.0000 H   0  0  0  0  0  0  0  0  0  0  0  0
    4.8837   -7.3091    0.0000 H   0  0  0  0  0  0  0  0  0  0  0  0
   -2.2898   -1.0521    0.0000 H   0  0  0  0  0  0  0  0  0  0  0  0
   -2.7313   -2.4111    0.0000 H   0  0  0  0  0  0  0  0  0  0  0  0
    2.9324   -6.7957    0.0000 H   0  0  0  0  0  0  0  0  0  0  0  0
    3.0098   -7.5322    0.0000 H   0  0  0  0  0  0  0  0  0  0  0  0
    2.0964   -6.2749    0.0000 H   0  0  0  0  0  0  0  0  0  0  0  0
    2.7729   -6.5761    0.0000 H   0  0  0  0  0  0  0  0  0  0  0  0
   -0.2617    0.4228    0.0000 H   0  0  0  0  0  0  0  0  0  0  0  0
    0.6324    0.2204    0.0000 H   0  0  0  0  0  0  0  0  0  0  0  0
    1.1614    0.9691    0.0000 H   0  0  0  0  0  0  0  0  0  0  0  0
  1  2  1  0  0  0  0
  2  3  1  0  0  0  0
  3  4  4  0  0  0  0
  3 18  4  0  0  0  0
  4  5  4  0  0  0  0
  5  6  1  0  0  0  0
  5 17  4  0  0  0  0
  6  7  1  0  0  0  0
  6 16  1  0  0  0  0
  7  8  1  0  0  0  0
  8  9  1  0  0  0  0
  9 10  1  0  0  0  0
  9 15  1  0  0  0  0
 10 11  2  0  0  0  0
 10 12  1  0  0  0  0
 12 13  1  0  0  0  0
 13 14  1  0  0  0  0
 15 16  1  0  0  0  0
 17 18  4  0  0  0  0
 18 19  1  0  0  0  0
 19 20  4  0  0  0  0
 19 34  4  0  0  0  0
 20 21  4  0  0  0  0
 21 22  4  0  0  0  0
 22 23  1  0  0  0  0
 22 24  4  0  0  0  0
 24 25  1  0  0  0  0
 24 34  4  0  0  0  0
 25 26  4  0  0  0  0
 25 33  4  0  0  0  0
 26 27  4  0  0  0  0
 27 28  4  0  0  0  0
 28 29  1  0  0  0  0
 28 33  4  0  0  0  0
 29 30  1  0  0  0  0
 29 31  1  0  0  0  0
 29 32  1  0  0  0  0
 14 35  1  0  0  0  0
  8 36  1  0  0  0  0
  8 37  1  0  0  0  0
 20 38  1  0  0  0  0
  7 39  1  0  0  0  0
  7 40  1  0  0  0  0
  2 41  1  0  0  0  0
  2 42  1  0  0  0  0
  1 43  1  0  0  0  0
  1 44  1  0  0  0  0
  1 45  1  0  0  0  0
 16 46  1  0  0  0  0
 16 47  1  0  0  0  0
 30 48  1  0  0  0  0
 30 49  1  0  0  0  0
 30 50  1  0  0  0  0
 32 51  1  0  0  0  0
 32 52  1  0  0  0  0
 32 53  1  0  0  0  0
  6 54  1  0  0  0  0
 13 55  1  0  0  0  0
 13 56  1  0  0  0  0
 23 57  1  0  0  0  0
 23 58  1  0  0  0  0
 12 59  1  0  0  0  0
 12 60  1  0  0  0  0
 15 61  1  0  0  0  0
 15 62  1  0  0  0  0
 31 63  1  0  0  0  0
 31 64  1  0  0  0  0
 31 65  1  0  0  0  0
M  END
> <Molecule ChEMBL ID>
CHEMBL3894518

> <Class(50)>
1

> <Class(80)>
1

>  <salt>
false

>  <StandardizerResult>
Tautomerize (ID: Tautomerize)
Neutralize (ID: Neutralize)
Aromatize (ID: Aromatize)
Wedge Clean (ID: Wedge Clean)
Clean 2D (ID: Clean2D)

$$$$
CHEMBL1422849
  Mrv2010 08032110442D          

 54 57  0  0  1  0            999 V2000
   -4.1359   -1.7955    0.0000 C   0  0  0  0  0  0  0  0  0  0  0  0
   -3.4214   -1.3830    0.0000 C   0  0  0  0  0  0  0  0  0  0  0  0
   -2.7070   -1.7955    0.0000 N   0  0  0  0  0  0  0  0  0  0  0  0
   -1.9925   -1.3830    0.0000 C   0  0  0  0  0  0  0  0  0  0  0  0
   -1.2780   -1.7955    0.0000 C   0  0  0  0  0  0  0  0  0  0  0  0
   -1.2780   -2.6205    0.0000 N   0  0  0  0  0  0  0  0  0  0  0  0
   -0.5636   -3.0330    0.0000 C   0  0  1  0  0  0  0  0  0  0  0  0
   -0.5636   -3.8580    0.0000 C   0  0  0  0  0  0  0  0  0  0  0  0
    0.1509   -4.2705    0.0000 C   0  0  0  0  0  0  0  0  0  0  0  0
    0.1509   -5.0955    0.0000 C   0  0  0  0  0  0  0  0  0  0  0  0
   -0.5636   -5.5080    0.0000 C   0  0  0  0  0  0  0  0  0  0  0  0
   -0.5636   -6.3330    0.0000 C   0  0  0  0  0  0  0  0  0  0  0  0
   -0.5636   -7.1580    0.0000 F   0  0  0  0  0  0  0  0  0  0  0  0
   -1.3886   -6.3330    0.0000 F   0  0  0  0  0  0  0  0  0  0  0  0
    0.2614   -6.3330    0.0000 F   0  0  0  0  0  0  0  0  0  0  0  0
   -1.2780   -5.0955    0.0000 C   0  0  0  0  0  0  0  0  0  0  0  0
   -1.2780   -4.2705    0.0000 C   0  0  0  0  0  0  0  0  0  0  0  0
    0.1509   -2.6205    0.0000 C   0  0  0  0  0  0  0  0  0  0  0  0
    0.1509   -1.7955    0.0000 C   0  0  0  0  0  0  0  0  0  0  0  0
    0.8654   -1.3830    0.0000 C   0  0  0  0  0  0  0  0  0  0  0  0
    1.5799   -1.7955    0.0000 C   0  0  0  0  0  0  0  0  0  0  0  0
    2.2943   -1.3830    0.0000 C   0  0  0  0  0  0  0  0  0  0  0  0
    3.0088   -1.7955    0.0000 C   0  0  0  0  0  0  0  0  0  0  0  0
    3.0088   -2.6205    0.0000 C   0  0  0  0  0  0  0  0  0  0  0  0
    2.2943   -3.0330    0.0000 N   0  0  0  0  0  0  0  0  0  0  0  0
    1.5799   -2.6205    0.0000 C   0  0  0  0  0  0  0  0  0  0  0  0
    0.8654   -3.0330    0.0000 C   0  0  0  0  0  0  0  0  0  0  0  0
    0.8654   -3.8580    0.0000 O   0  0  0  0  0  0  0  0  0  0  0  0
   -1.9925   -3.0330    0.0000 C   0  0  0  0  0  0  0  0  0  0  0  0
   -2.7070   -2.6205    0.0000 C   0  0  0  0  0  0  0  0  0  0  0  0
    1.5799   -4.2705    0.0000 H   0  0  0  0  0  0  0  0  0  0  0  0
    0.8654   -5.5080    0.0000 H   0  0  0  0  0  0  0  0  0  0  0  0
    3.7233   -3.0330    0.0000 H   0  0  0  0  0  0  0  0  0  0  0  0
   -1.6222   -0.6457    0.0000 H   0  0  0  0  0  0  0  0  0  0  0  0
   -2.3628   -0.6457    0.0000 H   0  0  0  0  0  0  0  0  0  0  0  0
   -1.9925   -5.5080    0.0000 H   0  0  0  0  0  0  0  0  0  0  0  0
    0.8654   -0.5580    0.0000 H   0  0  0  0  0  0  0  0  0  0  0  0
   -2.6245   -3.5633    0.0000 H   0  0  0  0  0  0  0  0  0  0  0  0
   -2.1358   -3.8455    0.0000 H   0  0  0  0  0  0  0  0  0  0  0  0
   -4.5484   -1.0810    0.0000 H   0  0  0  0  0  0  0  0  0  0  0  0
   -4.8504   -2.2080    0.0000 H   0  0  0  0  0  0  0  0  0  0  0  0
   -3.7234   -2.5100    0.0000 H   0  0  0  0  0  0  0  0  0  0  0  0
   -3.4913   -2.3648    0.0000 H   0  0  0  0  0  0  0  0  0  0  0  0
   -3.4661   -2.9436    0.0000 H   0  0  0  0  0  0  0  0  0  0  0  0
    0.1509   -3.4455    0.0000 H   0  0  0  0  0  0  0  0  0  0  0  0
   -1.2780   -3.4455    0.0000 H   0  0  0  0  0  0  0  0  0  0  0  0
   -0.4544   -1.7475    0.0000 H   0  0  0  0  0  0  0  0  0  0  0  0
   -0.8247   -1.1062    0.0000 H   0  0  0  0  0  0  0  0  0  0  0  0
   -3.0512   -0.6457    0.0000 H   0  0  0  0  0  0  0  0  0  0  0  0
   -3.7917   -0.6457    0.0000 H   0  0  0  0  0  0  0  0  0  0  0  0
    2.2943   -0.5580    0.0000 H   0  0  0  0  0  0  0  0  0  0  0  0
   -2.1030   -4.2705    0.0000 H   0  0  0  0  0  0  0  0  0  0  0  0
    3.7233   -1.3830    0.0000 H   0  0  0  0  0  0  0  0  0  0  0  0
   -0.0309   -0.9908    0.0000 H   0  0  0  0  0  0  0  0  0  0  0  0
  1  2  1  0  0  0  0
  2  3  1  0  0  0  0
  3  4  1  0  0  0  0
  3 30  1  0  0  0  0
  4  5  1  0  0  0  0
  5  6  1  0  0  0  0
  7  6  1  0  0  0  0
  6 29  1  0  0  0  0
  7  8  1  0  0  0  0
  7 18  1  0  0  0  0
  8  9  4  0  0  0  0
  8 17  4  0  0  0  0
  9 10  4  0  0  0  0
 10 11  4  0  0  0  0
 11 12  1  0  0  0  0
 11 16  4  0  0  0  0
 12 13  1  0  0  0  0
 12 14  1  0  0  0  0
 12 15  1  0  0  0  0
 16 17  4  0  0  0  0
 18 19  4  0  0  0  0
 18 27  4  0  0  0  0
 19 20  4  0  0  0  0
 20 21  4  0  0  0  0
 21 22  4  0  0  0  0
 21 26  4  0  0  0  0
 22 23  4  0  0  0  0
 23 24  4  0  0  0  0
 24 25  4  0  0  0  0
 25 26  4  0  0  0  0
 26 27  4  0  0  0  0
 27 28  1  0  0  0  0
 29 30  1  0  0  0  0
 28 31  1  0  0  0  0
 10 32  1  0  0  0  0
 24 33  1  0  0  0  0
  4 34  1  0  0  0  0
  4 35  1  0  0  0  0
 16 36  1  0  0  0  0
 20 37  1  0  0  0  0
 29 38  1  0  0  0  0
 29 39  1  0  0  0  0
  1 40  1  0  0  0  0
  1 41  1  0  0  0  0
  1 42  1  0  0  0  0
 30 43  1  0  0  0  0
 30 44  1  0  0  0  0
  9 45  1  0  0  0  0
  7 46  1  1  0  0  0
  5 47  1  0  0  0  0
  5 48  1  0  0  0  0
  2 49  1  0  0  0  0
  2 50  1  0  0  0  0
 22 51  1  0  0  0  0
 17 52  1  0  0  0  0
 23 53  1  0  0  0  0
 19 54  1  0  0  0  0
M  END
> <Molecule ChEMBL ID>
CHEMBL1422849

> <Class(50)>
1

> <Class(80)>
1

>  <salt>
false

>  <StandardizerResult>
Tautomerize (ID: Tautomerize)
Transform (ID: Transform NO2 (1))
Aromatize (ID: Aromatize)
Wedge Clean (ID: Wedge Clean)
Clean 2D (ID: Clean2D)

$$$$
CHEMBL3769507
  Mrv2010 08032110442D          

 55 58  0  0  0  0            999 V2000
    4.0846    2.3118    0.0000 C   0  0  0  0  0  0  0  0  0  0  0  0
    4.0846    1.4868    0.0000 C   0  0  0  0  0  0  0  0  0  0  0  0
    3.3702    1.0743    0.0000 N   0  0  0  0  0  0  0  0  0  0  0  0
    3.3702    0.2493    0.0000 C   0  0  0  0  0  0  0  0  0  0  0  0
    2.6557   -0.1632    0.0000 C   0  0  0  0  0  0  0  0  0  0  0  0
    2.6557   -0.9882    0.0000 C   0  0  0  0  0  0  0  0  0  0  0  0
    3.3702   -1.4007    0.0000 C   0  0  0  0  0  0  0  0  0  0  0  0
    3.3702   -2.2257    0.0000 C   0  0  0  0  0  0  0  0  0  0  0  0
    2.6557   -2.6382    0.0000 C   0  0  0  0  0  0  0  0  0  0  0  0
    1.9412   -2.2257    0.0000 C   0  0  0  0  0  0  0  0  0  0  0  0
    1.2267   -2.6382    0.0000 C   0  0  0  0  0  0  0  0  0  0  0  0
    0.5123   -3.0507    0.0000 F   0  0  0  0  0  0  0  0  0  0  0  0
    1.6392   -3.3527    0.0000 F   0  0  0  0  0  0  0  0  0  0  0  0
    0.8142   -1.9238    0.0000 F   0  0  0  0  0  0  0  0  0  0  0  0
    1.9412   -1.4007    0.0000 C   0  0  0  0  0  0  0  0  0  0  0  0
    1.9412    0.2493    0.0000 C   0  0  0  0  0  0  0  0  0  0  0  0
    1.1566   -0.0057    0.0000 S   0  0  0  0  0  0  0  0  0  0  0  0
    0.6717    0.6618    0.0000 C   0  0  0  0  0  0  0  0  0  0  0  0
   -0.1533    0.6618    0.0000 C   0  0  0  0  0  0  0  0  0  0  0  0
   -0.5658    1.3762    0.0000 N   0  0  0  0  0  0  0  0  0  0  0  0
   -0.5658   -0.0527    0.0000 N   0  0  0  0  0  0  0  0  0  0  0  0
   -1.3908   -0.0527    0.0000 C   0  0  0  0  0  0  0  0  0  0  0  0
   -1.8033   -0.7672    0.0000 C   0  0  0  0  0  0  0  0  0  0  0  0
   -2.6283   -0.7672    0.0000 C   0  0  0  0  0  0  0  0  0  0  0  0
   -3.0408   -0.0527    0.0000 S   0  0  0  0  0  0  0  0  0  0  0  0
   -3.6728   -0.5830    0.0000 O   0  0  0  0  0  0  0  0  0  0  0  0
   -3.6728    0.4776    0.0000 O   0  0  0  0  0  0  0  0  0  0  0  0
   -2.6283    0.6618    0.0000 C   0  0  0  0  0  0  0  0  0  0  0  0
   -1.8033    0.6618    0.0000 C   0  0  0  0  0  0  0  0  0  0  0  0
    1.1566    1.3292    0.0000 C   0  0  0  0  0  0  0  0  0  0  0  0
    1.9412    1.0743    0.0000 C   0  0  0  0  0  0  0  0  0  0  0  0
    2.6557    1.4868    0.0000 C   0  0  0  0  0  0  0  0  0  0  0  0
    2.6557    2.3118    0.0000 O   0  0  0  0  0  0  0  0  0  0  0  0
    4.5380    0.7975    0.0000 H   0  0  0  0  0  0  0  0  0  0  0  0
    4.9082    1.4388    0.0000 H   0  0  0  0  0  0  0  0  0  0  0  0
   -2.6763    1.4854    0.0000 H   0  0  0  0  0  0  0  0  0  0  0  0
   -3.3176    1.1151    0.0000 H   0  0  0  0  0  0  0  0  0  0  0  0
    1.2267   -0.9882    0.0000 H   0  0  0  0  0  0  0  0  0  0  0  0
   -0.1533   -0.7672    0.0000 H   0  0  0  0  0  0  0  0  0  0  0  0
   -1.7554   -1.5908    0.0000 H   0  0  0  0  0  0  0  0  0  0  0  0
   -1.1141   -1.2205    0.0000 H   0  0  0  0  0  0  0  0  0  0  0  0
    4.9096    2.3118    0.0000 H   0  0  0  0  0  0  0  0  0  0  0  0
    4.0846    3.1368    0.0000 H   0  0  0  0  0  0  0  0  0  0  0  0
    3.2596    2.3118    0.0000 H   0  0  0  0  0  0  0  0  0  0  0  0
    0.9017    2.1138    0.0000 H   0  0  0  0  0  0  0  0  0  0  0  0
    4.0846   -2.6382    0.0000 H   0  0  0  0  0  0  0  0  0  0  0  0
   -0.1533    2.0907    0.0000 H   0  0  0  0  0  0  0  0  0  0  0  0
    4.0846   -0.9882    0.0000 H   0  0  0  0  0  0  0  0  0  0  0  0
    2.6557   -3.4632    0.0000 H   0  0  0  0  0  0  0  0  0  0  0  0
   -0.9783    0.6618    0.0000 H   0  0  0  0  0  0  0  0  0  0  0  0
   -3.3176   -1.2205    0.0000 H   0  0  0  0  0  0  0  0  0  0  0  0
   -2.6763   -1.5908    0.0000 H   0  0  0  0  0  0  0  0  0  0  0  0
   -1.5212    1.4370    0.0000 H   0  0  0  0  0  0  0  0  0  0  0  0
   -2.0855    1.4370    0.0000 H   0  0  0  0  0  0  0  0  0  0  0  0
    4.0846   -0.1632    0.0000 H   0  0  0  0  0  0  0  0  0  0  0  0
  1  2  1  0  0  0  0
  2  3  1  0  0  0  0
  3  4  1  0  0  0  0
  3 32  1  0  0  0  0
  4  5  2  0  0  0  0
  5  6  1  0  0  0  0
  5 16  1  0  0  0  0
  6  7  4  0  0  0  0
  6 15  4  0  0  0  0
  7  8  4  0  0  0  0
  8  9  4  0  0  0  0
  9 10  4  0  0  0  0
 10 11  1  0  0  0  0
 10 15  4  0  0  0  0
 11 12  1  0  0  0  0
 11 13  1  0  0  0  0
 11 14  1  0  0  0  0
 16 17  4  0  0  0  0
 16 31  4  0  0  0  0
 17 18  4  0  0  0  0
 18 19  1  0  0  0  0
 18 30  4  0  0  0  0
 19 20  2  0  0  0  0
 19 21  1  0  0  0  0
 21 22  1  0  0  0  0
 22 23  1  0  0  0  0
 22 29  1  0  0  0  0
 23 24  1  0  0  0  0
 24 25  1  0  0  0  0
 25 26  2  0  0  0  0
 25 27  2  0  0  0  0
 25 28  1  0  0  0  0
 28 29  1  0  0  0  0
 30 31  4  0  0  0  0
 31 32  1  0  0  0  0
 32 33  2  0  0  0  0
  2 34  1  0  0  0  0
  2 35  1  0  0  0  0
 28 36  1  0  0  0  0
 28 37  1  0  0  0  0
 15 38  1  0  0  0  0
 21 39  1  0  0  0  0
 23 40  1  0  0  0  0
 23 41  1  0  0  0  0
  1 42  1  0  0  0  0
  1 43  1  0  0  0  0
  1 44  1  0  0  0  0
 30 45  1  0  0  0  0
  8 46  1  0  0  0  0
 20 47  1  4  0  0  0
  7 48  1  0  0  0  0
  9 49  1  0  0  0  0
 22 50  1  0  0  0  0
 24 51  1  0  0  0  0
 24 52  1  0  0  0  0
 29 53  1  0  0  0  0
 29 54  1  0  0  0  0
  4 55  1  0  0  0  0
M  END
> <Molecule ChEMBL ID>
CHEMBL3769507

> <Class(50)>
1

> <Class(80)>
1

>  <salt>
false

>  <StandardizerResult>
Tautomerize (ID: Tautomerize)
Neutralize (ID: Neutralize)
Aromatize (ID: Aromatize)
Wedge Clean (ID: Wedge Clean)
Clean 2D (ID: Clean2D)

$$$$
CHEMBL94841
  Mrv2010 08032110442D          

 25 26  0  0  0  0            999 V2000
    1.7787   -0.2688    0.0000 C   0  0  0  0  0  0  0  0  0  0  0  0
    1.0643   -0.6813    0.0000 C   0  0  0  0  0  0  0  0  0  0  0  0
    1.0643   -1.5063    0.0000 N   0  0  0  0  0  0  0  0  0  0  0  0
    1.7317   -1.9912    0.0000 C   0  0  0  0  0  0  0  0  0  0  0  0
    2.5163   -1.7363    0.0000 O   0  0  0  0  0  0  0  0  0  0  0  0
    1.4768   -2.7758    0.0000 N   0  0  0  0  0  0  0  0  0  0  0  0
    0.6518   -2.7758    0.0000 N   0  0  0  0  0  0  0  0  0  0  0  0
    0.3968   -1.9912    0.0000 C   0  0  0  0  0  0  0  0  0  0  0  0
   -0.3878   -1.7363    0.0000 C   0  0  0  0  0  0  0  0  0  0  0  0
   -1.0009   -2.2883    0.0000 C   0  0  0  0  0  0  0  0  0  0  0  0
   -1.7855   -2.0333    0.0000 C   0  0  0  0  0  0  0  0  0  0  0  0
   -1.9570   -1.2264    0.0000 C   0  0  0  0  0  0  0  0  0  0  0  0
   -2.7417   -0.9714    0.0000 Cl  0  0  0  0  0  0  0  0  0  0  0  0
   -1.3439   -0.6743    0.0000 C   0  0  0  0  0  0  0  0  0  0  0  0
   -0.5593   -0.9293    0.0000 C   0  0  0  0  0  0  0  0  0  0  0  0
    1.9617   -3.4433    0.0000 H   0  0  0  0  0  0  0  0  0  0  0  0
    2.1912   -0.9832    0.0000 H   0  0  0  0  0  0  0  0  0  0  0  0
    2.4932    0.1437    0.0000 H   0  0  0  0  0  0  0  0  0  0  0  0
    1.3662    0.4457    0.0000 H   0  0  0  0  0  0  0  0  0  0  0  0
   -1.5155    0.1326    0.0000 H   0  0  0  0  0  0  0  0  0  0  0  0
   -0.8294   -3.0953    0.0000 H   0  0  0  0  0  0  0  0  0  0  0  0
   -0.5759   -0.1044    0.0000 H   0  0  0  0  0  0  0  0  0  0  0  0
    0.6109    0.0080    0.0000 H   0  0  0  0  0  0  0  0  0  0  0  0
    0.2407   -0.6333    0.0000 H   0  0  0  0  0  0  0  0  0  0  0  0
   -2.3986   -2.5854    0.0000 H   0  0  0  0  0  0  0  0  0  0  0  0
  1  2  1  0  0  0  0
  2  3  1  0  0  0  0
  3  4  1  0  0  0  0
  3  8  1  0  0  0  0
  4  5  2  0  0  0  0
  4  6  1  0  0  0  0
  6  7  1  0  0  0  0
  7  8  2  0  0  0  0
  8  9  1  0  0  0  0
  9 10  4  0  0  0  0
  9 15  4  0  0  0  0
 10 11  4  0  0  0  0
 11 12  4  0  0  0  0
 12 13  1  0  0  0  0
 12 14  4  0  0  0  0
 14 15  4  0  0  0  0
  6 16  1  0  0  0  0
  1 17  1  0  0  0  0
  1 18  1  0  0  0  0
  1 19  1  0  0  0  0
 14 20  1  0  0  0  0
 10 21  1  0  0  0  0
 15 22  1  0  0  0  0
  2 23  1  0  0  0  0
  2 24  1  0  0  0  0
 11 25  1  0  0  0  0
M  END
> <Molecule ChEMBL ID>
CHEMBL94841

> <Class(50)>
1

> <Class(80)>
1

>  <salt>
false

>  <StandardizerResult>
Tautomerize (ID: Tautomerize)
Neutralize (ID: Neutralize)
Aromatize (ID: Aromatize)
Wedge Clean (ID: Wedge Clean)
Clean 2D (ID: Clean2D)

$$$$
CHEMBL188434
  Mrv2010 08032110442D          

 47 50  0  0  1  0            999 V2000
   -2.4329   -0.9732    0.0000 C   0  0  0  0  0  0  0  0  0  0  0  0
   -2.9849   -0.3601    0.0000 C   0  0  0  0  0  0  0  0  0  0  0  0
   -2.7300    0.4245    0.0000 N   0  0  0  0  0  0  0  0  0  0  0  0
   -3.2149    1.0920    0.0000 C   0  0  0  0  0  0  0  0  0  0  0  0
   -4.0399    1.0920    0.0000 C   0  0  0  0  0  0  0  0  0  0  0  0
   -4.5249    0.4245    0.0000 N   0  0  0  0  0  0  0  0  0  0  0  0
   -5.3095    0.6795    0.0000 O   0  0  0  0  0  0  0  0  0  0  0  0
   -5.3095    1.5045    0.0000 N   0  0  0  0  0  0  0  0  0  0  0  0
   -4.5249    1.7594    0.0000 C   0  0  0  0  0  0  0  0  0  0  0  0
   -4.2699    2.5440    0.0000 N   0  0  0  0  0  0  0  0  0  0  0  0
   -2.7300    1.7594    0.0000 N   0  0  0  0  0  0  0  0  0  0  0  0
   -1.9454    1.5045    0.0000 C   0  0  0  0  0  0  0  0  0  0  0  0
   -1.2309    1.9170    0.0000 C   0  0  0  0  0  0  0  0  0  0  0  0
   -0.5164    1.5045    0.0000 N   0  0  0  0  0  0  0  0  0  0  0  0
   -0.5164    0.6795    0.0000 C   0  0  0  0  0  0  0  0  0  0  0  0
   -1.2309    0.2670    0.0000 C   0  0  0  0  0  0  0  0  0  0  0  0
   -1.2309   -0.5580    0.0000 C   0  0  0  0  0  0  0  0  0  0  0  0
   -0.5164   -0.9705    0.0000 N   0  0  0  0  0  0  0  0  0  0  0  0
   -0.5164   -1.7955    0.0000 C   0  0  0  0  0  0  0  0  0  0  0  0
    0.1980   -2.2080    0.0000 C   0  0  0  0  0  0  0  0  0  0  0  0
    0.1980   -3.0330    0.0000 C   0  0  0  0  0  0  0  0  0  0  0  0
   -0.5164   -3.4455    0.0000 N   0  0  0  0  0  0  0  0  0  0  0  0
   -1.2309   -3.0330    0.0000 C   0  0  0  0  0  0  0  0  0  0  0  0
   -1.2309   -2.2080    0.0000 C   0  0  0  0  0  0  0  0  0  0  0  0
   -1.9454    0.6795    0.0000 C   0  0  0  0  0  0  0  0  0  0  0  0
   -3.7831   -0.1512    0.0000 H   0  0  0  0  0  0  0  0  0  0  0  0
   -3.6291   -0.8756    0.0000 H   0  0  0  0  0  0  0  0  0  0  0  0
   -1.2309   -1.3830    0.0000 H   0  0  0  0  0  0  0  0  0  0  0  0
   -3.0460   -1.5252    0.0000 H   0  0  0  0  0  0  0  0  0  0  0  0
   -1.8809   -1.5863    0.0000 H   0  0  0  0  0  0  0  0  0  0  0  0
   -1.8198   -0.4212    0.0000 H   0  0  0  0  0  0  0  0  0  0  0  0
    0.1980    0.2670    0.0000 H   0  0  0  0  0  0  0  0  0  0  0  0
   -1.5338   -1.3254    0.0000 H   0  0  0  0  0  0  0  0  0  0  0  0
   -0.5164   -0.1455    0.0000 H   0  0  0  0  0  0  0  0  0  0  0  0
   -0.5164   -4.2705    0.0000 H   0  0  0  0  0  0  0  0  0  0  0  0
    0.3086   -0.9705    0.0000 H   0  0  0  0  0  0  0  0  0  0  0  0
    1.0216   -2.1601    0.0000 H   0  0  0  0  0  0  0  0  0  0  0  0
    0.6514   -1.5188    0.0000 H   0  0  0  0  0  0  0  0  0  0  0  0
    0.6514   -3.7223    0.0000 H   0  0  0  0  0  0  0  0  0  0  0  0
    1.0216   -3.0810    0.0000 H   0  0  0  0  0  0  0  0  0  0  0  0
   -3.4629    2.7155    0.0000 H   0  0  0  0  0  0  0  0  0  0  0  0
   -4.8219    3.1571    0.0000 H   0  0  0  0  0  0  0  0  0  0  0  0
   -2.0545   -3.0810    0.0000 H   0  0  0  0  0  0  0  0  0  0  0  0
   -1.6843   -3.7223    0.0000 H   0  0  0  0  0  0  0  0  0  0  0  0
   -1.9896   -2.5322    0.0000 H   0  0  0  0  0  0  0  0  0  0  0  0
   -0.5164   -2.6205    0.0000 H   0  0  0  0  0  0  0  0  0  0  0  0
   -1.2309    2.7420    0.0000 H   0  0  0  0  0  0  0  0  0  0  0  0
  1  2  1  0  0  0  0
  2  3  1  0  0  0  0
  3  4  4  0  0  0  0
  3 25  4  0  0  0  0
  4  5  1  0  0  0  0
  4 11  4  0  0  0  0
  5  6  4  0  0  0  0
  5  9  4  0  0  0  0
  6  7  4  0  0  0  0
  7  8  4  0  0  0  0
  8  9  4  0  0  0  0
  9 10  1  0  0  0  0
 11 12  4  0  0  0  0
 12 13  4  0  0  0  0
 12 25  4  0  0  0  0
 13 14  4  0  0  0  0
 14 15  4  0  0  0  0
 15 16  4  0  0  0  0
 16 17  1  0  0  0  0
 16 25  4  0  0  0  0
 17 18  1  0  0  0  0
 18 19  1  0  0  0  0
 19 20  1  0  0  0  0
 19 24  1  0  0  0  0
 20 21  1  0  0  0  0
 21 22  1  0  0  0  0
 22 23  1  0  0  0  0
 23 24  1  0  0  0  0
  2 26  1  0  0  0  0
  2 27  1  0  0  0  0
 19 28  1  0  0  0  0
  1 29  1  0  0  0  0
  1 30  1  0  0  0  0
  1 31  1  0  0  0  0
 15 32  1  0  0  0  0
 17 33  1  0  0  0  0
 17 34  1  0  0  0  0
 22 35  1  0  0  0  0
 18 36  1  0  0  0  0
 20 37  1  0  0  0  0
 20 38  1  0  0  0  0
 21 39  1  0  0  0  0
 21 40  1  0  0  0  0
 10 41  1  0  0  0  0
 10 42  1  0  0  0  0
 23 43  1  0  0  0  0
 23 44  1  0  0  0  0
 24 45  1  0  0  0  0
 24 46  1  0  0  0  0
 13 47  1  0  0  0  0
M  END
> <Molecule ChEMBL ID>
CHEMBL188434

> <Class(50)>
1

> <Class(80)>
1

>  <salt>
false

>  <StandardizerResult>
Tautomerize (ID: Tautomerize)
Transform (ID: Transform NO2 (1))
Aromatize (ID: Aromatize)
Wedge Clean (ID: Wedge Clean)
Clean 2D (ID: Clean2D)

$$$$
CHEMBL3545366
  Mrv2010 08032110442D          

 34 36  0  0  0  0            999 V2000
    0.6630   -3.2804    0.0000 C   0  0  0  0  0  0  0  0  0  0  0  0
   -0.0514   -2.8679    0.0000 C   0  0  0  0  0  0  0  0  0  0  0  0
   -0.0514   -2.0429    0.0000 N   0  0  0  0  0  0  0  0  0  0  0  0
   -0.7659   -1.6304    0.0000 C   0  0  0  0  0  0  0  0  0  0  0  0
   -1.4804   -2.0429    0.0000 O   0  0  0  0  0  0  0  0  0  0  0  0
   -0.7659   -0.8054    0.0000 C   0  0  0  0  0  0  0  0  0  0  0  0
   -1.4804   -0.3929    0.0000 C   0  0  0  0  0  0  0  0  0  0  0  0
   -2.2340   -0.7284    0.0000 C   0  0  0  0  0  0  0  0  0  0  0  0
   -2.7861   -0.1153    0.0000 C   0  0  0  0  0  0  0  0  0  0  0  0
   -2.3736    0.5992    0.0000 N   0  0  0  0  0  0  0  0  0  0  0  0
   -1.5666    0.4276    0.0000 N   0  0  0  0  0  0  0  0  0  0  0  0
   -0.0514   -0.3929    0.0000 C   0  0  0  0  0  0  0  0  0  0  0  0
    0.6630   -0.8054    0.0000 C   0  0  0  0  0  0  0  0  0  0  0  0
    1.3775   -0.3929    0.0000 C   0  0  0  0  0  0  0  0  0  0  0  0
    1.3775    0.4321    0.0000 C   0  0  0  0  0  0  0  0  0  0  0  0
    2.0920   -0.8054    0.0000 N   0  0  0  0  0  0  0  0  0  0  0  0
    2.0920   -1.6304    0.0000 C   0  0  0  0  0  0  0  0  0  0  0  0
    2.8065   -2.0429    0.0000 N   0  0  0  0  0  0  0  0  0  0  0  0
    1.3775   -2.0429    0.0000 N   0  0  0  0  0  0  0  0  0  0  0  0
    0.6630   -1.6304    0.0000 C   0  0  0  0  0  0  0  0  0  0  0  0
    0.2505   -3.9948    0.0000 H   0  0  0  0  0  0  0  0  0  0  0  0
    1.3775   -3.6929    0.0000 H   0  0  0  0  0  0  0  0  0  0  0  0
    1.0755   -2.5659    0.0000 H   0  0  0  0  0  0  0  0  0  0  0  0
   -0.8750   -2.9158    0.0000 H   0  0  0  0  0  0  0  0  0  0  0  0
   -0.5048   -3.5571    0.0000 H   0  0  0  0  0  0  0  0  0  0  0  0
    2.8065   -2.8679    0.0000 H   0  0  0  0  0  0  0  0  0  0  0  0
    3.5209   -1.6304    0.0000 H   0  0  0  0  0  0  0  0  0  0  0  0
   -2.7091    1.3528    0.0000 H   0  0  0  0  0  0  0  0  0  0  0  0
   -0.0514    0.4321    0.0000 H   0  0  0  0  0  0  0  0  0  0  0  0
   -3.6066   -0.2015    0.0000 H   0  0  0  0  0  0  0  0  0  0  0  0
   -2.4056   -1.5354    0.0000 H   0  0  0  0  0  0  0  0  0  0  0  0
    2.2025    0.4321    0.0000 H   0  0  0  0  0  0  0  0  0  0  0  0
    1.3775    1.2571    0.0000 H   0  0  0  0  0  0  0  0  0  0  0  0
    0.5525    0.4321    0.0000 H   0  0  0  0  0  0  0  0  0  0  0  0
  1  2  1  0  0  0  0
  2  3  1  0  0  0  0
  3  4  1  0  0  0  0
  3 20  1  0  0  0  0
  4  5  2  0  0  0  0
  4  6  1  0  0  0  0
  6  7  1  0  0  0  0
  6 12  2  0  0  0  0
  7  8  4  0  0  0  0
  7 11  4  0  0  0  0
  8  9  4  0  0  0  0
  9 10  4  0  0  0  0
 10 11  4  0  0  0  0
 12 13  1  0  0  0  0
 13 14  4  0  0  0  0
 13 20  4  0  0  0  0
 14 15  1  0  0  0  0
 14 16  4  0  0  0  0
 16 17  4  0  0  0  0
 17 18  1  0  0  0  0
 17 19  4  0  0  0  0
 19 20  4  0  0  0  0
  1 21  1  0  0  0  0
  1 22  1  0  0  0  0
  1 23  1  0  0  0  0
  2 24  1  0  0  0  0
  2 25  1  0  0  0  0
 18 26  1  0  0  0  0
 18 27  1  0  0  0  0
 10 28  1  0  0  0  0
 12 29  1  0  0  0  0
  9 30  1  0  0  0  0
  8 31  1  0  0  0  0
 15 32  1  0  0  0  0
 15 33  1  0  0  0  0
 15 34  1  0  0  0  0
M  END
> <Molecule ChEMBL ID>
CHEMBL3545366

> <Class(50)>
1

> <Class(80)>
1

>  <salt>
false

>  <StandardizerResult>
Tautomerize (ID: Tautomerize)
Neutralize (ID: Neutralize)
Aromatize (ID: Aromatize)
Wedge Clean (ID: Wedge Clean)
Clean 2D (ID: Clean2D)

$$$$
CHEMBL1713178
  Mrv2010 08032110442D          

 42 44  0  0  0  0            999 V2000
   -1.9754   -4.8991    0.0000 C   0  0  0  0  0  0  0  0  0  0  0  0
   -1.5629   -4.1847    0.0000 C   0  0  0  0  0  0  0  0  0  0  0  0
   -0.7379   -4.1847    0.0000 N   0  0  0  0  0  0  0  0  0  0  0  0
   -0.3254   -4.8991    0.0000 C   0  0  0  0  0  0  0  0  0  0  0  0
    0.4996   -4.8991    0.0000 C   0  0  0  0  0  0  0  0  0  0  0  0
   -0.3254   -3.4702    0.0000 S   0  0  0  0  0  0  0  0  0  0  0  0
    0.3891   -3.8827    0.0000 O   0  0  0  0  0  0  0  0  0  0  0  0
   -1.0399   -3.0577    0.0000 O   0  0  0  0  0  0  0  0  0  0  0  0
    0.0871   -2.7557    0.0000 C   0  0  0  0  0  0  0  0  0  0  0  0
   -0.3254   -2.0412    0.0000 C   0  0  0  0  0  0  0  0  0  0  0  0
    0.0871   -1.3268    0.0000 C   0  0  0  0  0  0  0  0  0  0  0  0
    0.9121   -1.3268    0.0000 C   0  0  0  0  0  0  0  0  0  0  0  0
    1.3246   -2.0412    0.0000 C   0  0  0  0  0  0  0  0  0  0  0  0
    2.1496   -2.0412    0.0000 N   0  0  0  0  0  0  0  0  0  0  0  0
    2.6345   -1.3738    0.0000 S   0  0  0  0  0  0  0  0  0  0  0  0
    3.4191   -1.6287    0.0000 C   0  0  0  0  0  0  0  0  0  0  0  0
    4.1336   -1.2162    0.0000 C   0  0  0  0  0  0  0  0  0  0  0  0
    4.8481   -1.6287    0.0000 C   0  0  0  0  0  0  0  0  0  0  0  0
    4.8481   -2.4537    0.0000 C   0  0  0  0  0  0  0  0  0  0  0  0
    4.1336   -2.8662    0.0000 C   0  0  0  0  0  0  0  0  0  0  0  0
    3.4191   -2.4537    0.0000 C   0  0  0  0  0  0  0  0  0  0  0  0
    2.6345   -2.7087    0.0000 C   0  0  0  0  0  0  0  0  0  0  0  0
    2.3796   -3.4933    0.0000 O   0  0  0  0  0  0  0  0  0  0  0  0
    0.9121   -2.7557    0.0000 C   0  0  0  0  0  0  0  0  0  0  0  0
    0.4996   -5.7241    0.0000 H   0  0  0  0  0  0  0  0  0  0  0  0
    1.3246   -4.8991    0.0000 H   0  0  0  0  0  0  0  0  0  0  0  0
    0.4996   -4.0741    0.0000 H   0  0  0  0  0  0  0  0  0  0  0  0
    1.3246   -0.6123    0.0000 H   0  0  0  0  0  0  0  0  0  0  0  0
    4.1336   -0.3912    0.0000 H   0  0  0  0  0  0  0  0  0  0  0  0
    4.1336   -3.6912    0.0000 H   0  0  0  0  0  0  0  0  0  0  0  0
   -1.6109   -3.3610    0.0000 H   0  0  0  0  0  0  0  0  0  0  0  0
   -2.2522   -3.7313    0.0000 H   0  0  0  0  0  0  0  0  0  0  0  0
   -1.1504   -2.0412    0.0000 H   0  0  0  0  0  0  0  0  0  0  0  0
   -0.3254   -0.6123    0.0000 H   0  0  0  0  0  0  0  0  0  0  0  0
    1.3246   -3.4702    0.0000 H   0  0  0  0  0  0  0  0  0  0  0  0
    5.5625   -2.8662    0.0000 H   0  0  0  0  0  0  0  0  0  0  0  0
   -1.0147   -5.3525    0.0000 H   0  0  0  0  0  0  0  0  0  0  0  0
   -0.3734   -5.7227    0.0000 H   0  0  0  0  0  0  0  0  0  0  0  0
    5.5625   -1.2162    0.0000 H   0  0  0  0  0  0  0  0  0  0  0  0
   -2.6899   -4.4866    0.0000 H   0  0  0  0  0  0  0  0  0  0  0  0
   -2.3879   -5.6136    0.0000 H   0  0  0  0  0  0  0  0  0  0  0  0
   -1.2609   -5.3116    0.0000 H   0  0  0  0  0  0  0  0  0  0  0  0
  1  2  1  0  0  0  0
  2  3  1  0  0  0  0
  3  4  1  0  0  0  0
  3  6  1  0  0  0  0
  4  5  1  0  0  0  0
  6  7  2  0  0  0  0
  6  8  2  0  0  0  0
  6  9  1  0  0  0  0
  9 10  4  0  0  0  0
  9 24  4  0  0  0  0
 10 11  4  0  0  0  0
 11 12  4  0  0  0  0
 12 13  4  0  0  0  0
 13 14  1  0  0  0  0
 13 24  4  0  0  0  0
 14 15  1  0  0  0  0
 14 22  1  0  0  0  0
 15 16  1  0  0  0  0
 16 17  4  0  0  0  0
 16 21  4  0  0  0  0
 17 18  4  0  0  0  0
 18 19  4  0  0  0  0
 19 20  4  0  0  0  0
 20 21  4  0  0  0  0
 21 22  1  0  0  0  0
 22 23  2  0  0  0  0
  5 25  1  0  0  0  0
  5 26  1  0  0  0  0
  5 27  1  0  0  0  0
 12 28  1  0  0  0  0
 17 29  1  0  0  0  0
 20 30  1  0  0  0  0
  2 31  1  0  0  0  0
  2 32  1  0  0  0  0
 10 33  1  0  0  0  0
 11 34  1  0  0  0  0
 24 35  1  0  0  0  0
 19 36  1  0  0  0  0
  4 37  1  0  0  0  0
  4 38  1  0  0  0  0
 18 39  1  0  0  0  0
  1 40  1  0  0  0  0
  1 41  1  0  0  0  0
  1 42  1  0  0  0  0
M  END
> <Molecule ChEMBL ID>
CHEMBL1713178

> <Class(50)>
1

> <Class(80)>
1

>  <salt>
false

>  <StandardizerResult>
Tautomerize (ID: Tautomerize)
Neutralize (ID: Neutralize)
Aromatize (ID: Aromatize)
Wedge Clean (ID: Wedge Clean)
Clean 2D (ID: Clean2D)

$$$$
CHEMBL45827
  Mrv2010 08032110442D          

 71 73  0  0  1  0            999 V2000
   -3.6816    3.8754    0.0000 C   0  0  0  0  0  0  0  0  0  0  0  0
   -2.8714    4.0313    0.0000 C   0  0  0  0  0  0  0  0  0  0  0  0
   -2.3314    3.4076    0.0000 N   0  0  0  0  0  0  0  0  0  0  0  0
   -2.6014    2.6281    0.0000 C   0  0  0  0  0  0  0  0  0  0  0  0
   -3.4115    2.4722    0.0000 C   0  0  0  0  0  0  0  0  0  0  0  0
   -1.5212    3.5636    0.0000 C   0  0  0  0  0  0  0  0  0  0  0  0
   -0.9811    2.9399    0.0000 C   0  0  0  0  0  0  0  0  0  0  0  0
   -0.1710    3.0958    0.0000 C   0  0  0  0  0  0  0  0  0  0  0  0
    0.3691    2.4722    0.0000 C   0  0  0  0  0  0  0  0  0  0  0  0
    1.1792    2.6281    0.0000 N   0  0  0  0  0  0  0  0  0  0  0  0
    1.7193    2.0045    0.0000 C   0  0  0  0  0  0  0  0  0  0  0  0
    2.5295    2.1604    0.0000 N   0  0  0  0  0  0  0  0  0  0  0  0
    3.0695    1.5367    0.0000 C   0  0  0  0  0  0  0  0  0  0  0  0
    2.7995    0.7572    0.0000 C   0  0  0  0  0  0  0  0  0  0  0  0
    3.3396    0.1335    0.0000 C   0  0  0  0  0  0  0  0  0  0  0  0
    3.0695   -0.6460    0.0000 C   0  0  0  0  0  0  0  0  0  0  0  0
    3.6096   -1.2697    0.0000 C   0  0  0  0  0  0  0  0  0  0  0  0
    4.4198   -1.1138    0.0000 C   0  0  0  0  0  0  0  0  0  0  0  0
    4.6898   -0.3342    0.0000 Cl  0  0  0  0  0  0  0  0  0  0  0  0
    4.9599   -1.7374    0.0000 C   0  0  0  0  0  0  0  0  0  0  0  0
    4.6898   -2.5169    0.0000 C   0  0  0  0  0  0  0  0  0  0  0  0
    3.8797   -2.6729    0.0000 C   0  0  0  0  0  0  0  0  0  0  0  0
    3.3396   -2.0492    0.0000 C   0  0  0  0  0  0  0  0  0  0  0  0
    2.5295   -2.2051    0.0000 Cl  0  0  0  0  0  0  0  0  0  0  0  0
    2.2594   -0.8019    0.0000 C   0  0  0  0  0  0  0  0  0  0  0  0
    1.9894   -1.5815    0.0000 N   0  0  0  0  0  0  0  0  0  0  0  0
    1.1792   -1.7374    0.0000 C   0  0  0  0  0  0  0  0  0  0  0  0
    0.6391   -1.1138    0.0000 O   0  0  0  0  0  0  0  0  0  0  0  0
    0.9092   -2.5169    0.0000 N   0  0  0  0  0  0  0  0  0  0  0  0
    0.0990   -2.6729    0.0000 C   0  0  0  0  0  0  0  0  0  0  0  0
   -0.0569   -1.8627    0.0000 C   0  0  0  0  0  0  0  0  0  0  0  0
    0.2550   -3.4830    0.0000 C   0  0  0  0  0  0  0  0  0  0  0  0
   -0.7111   -2.8288    0.0000 C   0  0  0  0  0  0  0  0  0  0  0  0
    1.7193   -0.1783    0.0000 N   0  0  0  0  0  0  0  0  0  0  0  0
    1.9894    0.6013    0.0000 C   0  0  0  0  0  0  0  0  0  0  0  0
    1.4493    1.2249    0.0000 N   0  0  0  0  0  0  0  0  0  0  0  0
   -3.8375    4.6855    0.0000 H   0  0  0  0  0  0  0  0  0  0  0  0
   -4.4917    3.7195    0.0000 H   0  0  0  0  0  0  0  0  0  0  0  0
   -3.5257    3.0652    0.0000 H   0  0  0  0  0  0  0  0  0  0  0  0
   -0.2221    1.8967    0.0000 H   0  0  0  0  0  0  0  0  0  0  0  0
    0.4776    1.6544    0.0000 H   0  0  0  0  0  0  0  0  0  0  0  0
   -0.5552   -3.6389    0.0000 H   0  0  0  0  0  0  0  0  0  0  0  0
    0.4109   -4.2931    0.0000 H   0  0  0  0  0  0  0  0  0  0  0  0
    1.0651   -3.3271    0.0000 H   0  0  0  0  0  0  0  0  0  0  0  0
   -2.2803    4.6067    0.0000 H   0  0  0  0  0  0  0  0  0  0  0  0
   -2.9800    4.8491    0.0000 H   0  0  0  0  0  0  0  0  0  0  0  0
   -4.2197    2.6382    0.0000 H   0  0  0  0  0  0  0  0  0  0  0  0
   -3.8741    1.7891    0.0000 H   0  0  0  0  0  0  0  0  0  0  0  0
   -2.9575    1.7834    0.0000 H   0  0  0  0  0  0  0  0  0  0  0  0
    3.6096   -3.4524    0.0000 H   0  0  0  0  0  0  0  0  0  0  0  0
    2.7995   -1.4256    0.0000 H   0  0  0  0  0  0  0  0  0  0  0  0
    5.2299   -3.1406    0.0000 H   0  0  0  0  0  0  0  0  0  0  0  0
   -1.3942   -2.3662    0.0000 H   0  0  0  0  0  0  0  0  0  0  0  0
   -1.5212   -2.9847    0.0000 H   0  0  0  0  0  0  0  0  0  0  0  0
   -1.1737   -3.5119    0.0000 H   0  0  0  0  0  0  0  0  0  0  0  0
   -0.9300    4.1390    0.0000 H   0  0  0  0  0  0  0  0  0  0  0  0
   -1.6298    4.3814    0.0000 H   0  0  0  0  0  0  0  0  0  0  0  0
   -2.3986    1.8284    0.0000 H   0  0  0  0  0  0  0  0  0  0  0  0
   -1.8389    2.3132    0.0000 H   0  0  0  0  0  0  0  0  0  0  0  0
    0.7533   -1.7068    0.0000 H   0  0  0  0  0  0  0  0  0  0  0  0
   -0.2128   -1.0526    0.0000 H   0  0  0  0  0  0  0  0  0  0  0  0
   -0.8670   -2.0186    0.0000 H   0  0  0  0  0  0  0  0  0  0  0  0
    1.4493    3.4076    0.0000 H   0  0  0  0  0  0  0  0  0  0  0  0
    4.1497    0.2894    0.0000 H   0  0  0  0  0  0  0  0  0  0  0  0
    5.7700   -1.5815    0.0000 H   0  0  0  0  0  0  0  0  0  0  0  0
    0.4202    3.6713    0.0000 H   0  0  0  0  0  0  0  0  0  0  0  0
   -0.2795    3.9137    0.0000 H   0  0  0  0  0  0  0  0  0  0  0  0
    1.4493   -3.1406    0.0000 H   0  0  0  0  0  0  0  0  0  0  0  0
   -1.5723    2.3645    0.0000 H   0  0  0  0  0  0  0  0  0  0  0  0
   -0.8726    2.1221    0.0000 H   0  0  0  0  0  0  0  0  0  0  0  0
    3.8797    1.6926    0.0000 H   0  0  0  0  0  0  0  0  0  0  0  0
  1  2  1  0  0  0  0
  2  3  1  0  0  0  0
  3  4  1  0  0  0  0
  3  6  1  0  0  0  0
  4  5  1  0  0  0  0
  6  7  1  0  0  0  0
  7  8  1  0  0  0  0
  8  9  1  0  0  0  0
  9 10  1  0  0  0  0
 10 11  1  0  0  0  0
 11 12  4  0  0  0  0
 11 36  4  0  0  0  0
 12 13  4  0  0  0  0
 13 14  4  0  0  0  0
 14 15  4  0  0  0  0
 14 35  4  0  0  0  0
 15 16  4  0  0  0  0
 16 17  1  0  0  0  0
 16 25  4  0  0  0  0
 17 18  4  0  0  0  0
 17 23  4  0  0  0  0
 18 19  1  0  0  0  0
 18 20  4  0  0  0  0
 20 21  4  0  0  0  0
 21 22  4  0  0  0  0
 22 23  4  0  0  0  0
 23 24  1  0  0  0  0
 25 26  1  0  0  0  0
 25 34  4  0  0  0  0
 26 27  1  0  0  0  0
 27 28  2  0  0  0  0
 27 29  1  0  0  0  0
 29 30  1  0  0  0  0
 30 31  1  0  0  0  0
 30 32  1  0  0  0  0
 30 33  1  0  0  0  0
 34 35  4  0  0  0  0
 35 36  4  0  0  0  0
  1 37  1  0  0  0  0
  1 38  1  0  0  0  0
  1 39  1  0  0  0  0
  9 40  1  0  0  0  0
  9 41  1  0  0  0  0
 32 42  1  0  0  0  0
 32 43  1  0  0  0  0
 32 44  1  0  0  0  0
  2 45  1  0  0  0  0
  2 46  1  0  0  0  0
  5 47  1  0  0  0  0
  5 48  1  0  0  0  0
  5 49  1  0  0  0  0
 22 50  1  0  0  0  0
 26 51  1  0  0  0  0
 21 52  1  0  0  0  0
 33 53  1  0  0  0  0
 33 54  1  0  0  0  0
 33 55  1  0  0  0  0
  6 56  1  0  0  0  0
  6 57  1  0  0  0  0
  4 58  1  0  0  0  0
  4 59  1  0  0  0  0
 31 60  1  0  0  0  0
 31 61  1  0  0  0  0
 31 62  1  0  0  0  0
 10 63  1  0  0  0  0
 15 64  1  0  0  0  0
 20 65  1  0  0  0  0
  8 66  1  0  0  0  0
  8 67  1  0  0  0  0
 29 68  1  0  0  0  0
  7 69  1  0  0  0  0
  7 70  1  0  0  0  0
 13 71  1  0  0  0  0
M  END
> <Molecule ChEMBL ID>
CHEMBL45827

> <Class(50)>
1

> <Class(80)>
1

>  <salt>
false

>  <StandardizerResult>
Tautomerize (ID: Tautomerize)
Transform (ID: Transform NO2 (1))
Aromatize (ID: Aromatize)
Wedge Clean (ID: Wedge Clean)
Clean 2D (ID: Clean2D)

$$$$
CHEMBL1790039
  Mrv2010 08032110442D          

 62 64  0  0  0  0            999 V2000
   -1.1286    4.9412    0.0000 C   0  0  0  0  0  0  0  0  0  0  0  0
   -1.1286    4.1162    0.0000 C   0  0  0  0  0  0  0  0  0  0  0  0
   -0.4141    3.7037    0.0000 N   0  0  0  0  0  0  0  0  0  0  0  0
    0.3003    4.1162    0.0000 C   0  0  0  0  0  0  0  0  0  0  0  0
    1.0148    3.7037    0.0000 C   0  0  0  0  0  0  0  0  0  0  0  0
   -0.4141    2.8787    0.0000 C   0  0  0  0  0  0  0  0  0  0  0  0
    0.3003    2.4662    0.0000 C   0  0  0  0  0  0  0  0  0  0  0  0
    0.3003    1.6412    0.0000 C   0  0  0  0  0  0  0  0  0  0  0  0
   -0.4141    1.2287    0.0000 C   0  0  0  0  0  0  0  0  0  0  0  0
   -0.4141    0.4037    0.0000 C   0  3  0  0  0  0  0  0  0  0  0  0
   -1.1286   -0.0088    0.0000 C   0  0  0  0  0  0  0  0  0  0  0  0
   -1.1286   -0.8338    0.0000 C   0  0  0  0  0  0  0  0  0  0  0  0
   -1.8431   -1.2463    0.0000 C   0  0  0  0  0  0  0  0  0  0  0  0
   -2.5576   -0.8338    0.0000 C   0  0  0  0  0  0  0  0  0  0  0  0
   -3.2720   -1.2463    0.0000 N   0  0  0  0  0  0  0  0  0  0  0  0
   -3.2720   -2.0713    0.0000 C   0  0  0  0  0  0  0  0  0  0  0  0
   -2.5576   -2.4838    0.0000 C   0  0  0  0  0  0  0  0  0  0  0  0
   -3.9865   -0.8338    0.0000 C   0  0  0  0  0  0  0  0  0  0  0  0
   -4.7010   -1.2463    0.0000 C   0  0  0  0  0  0  0  0  0  0  0  0
   -2.5576   -0.0088    0.0000 C   0  0  0  0  0  0  0  0  0  0  0  0
   -1.8431    0.4037    0.0000 C   0  0  0  0  0  0  0  0  0  0  0  0
    0.3003   -0.0088    0.0000 C   0  0  0  0  0  0  0  0  0  0  0  0
    1.0148    0.4037    0.0000 C   0  0  0  0  0  0  0  0  0  0  0  0
    1.7293   -0.0088    0.0000 C   0  0  0  0  0  0  0  0  0  0  0  0
    1.7293   -0.8338    0.0000 C   0  0  0  0  0  0  0  0  0  0  0  0
    1.0148   -1.2463    0.0000 C   0  0  0  0  0  0  0  0  0  0  0  0
    0.3003   -0.8338    0.0000 C   0  0  0  0  0  0  0  0  0  0  0  0
   -1.1286    1.6412    0.0000 C   0  0  0  0  0  0  0  0  0  0  0  0
   -1.1286    2.4662    0.0000 C   0  0  0  0  0  0  0  0  0  0  0  0
   -1.8431    1.2287    0.0000 H   0  0  0  0  0  0  0  0  0  0  0  0
   -1.9522    4.0682    0.0000 H   0  0  0  0  0  0  0  0  0  0  0  0
   -1.5820    3.4269    0.0000 H   0  0  0  0  0  0  0  0  0  0  0  0
   -0.4141   -0.4213    0.0000 H   0  0  0  0  0  0  0  0  0  0  0  0
   -4.0956   -2.1193    0.0000 H   0  0  0  0  0  0  0  0  0  0  0  0
   -3.7254   -2.7606    0.0000 H   0  0  0  0  0  0  0  0  0  0  0  0
    0.3003    0.8162    0.0000 H   0  0  0  0  0  0  0  0  0  0  0  0
   -3.2720   -2.8963    0.0000 H   0  0  0  0  0  0  0  0  0  0  0  0
   -2.5576   -3.3088    0.0000 H   0  0  0  0  0  0  0  0  0  0  0  0
   -1.8431   -2.8963    0.0000 H   0  0  0  0  0  0  0  0  0  0  0  0
    1.0972    2.2527    0.0000 H   0  0  0  0  0  0  0  0  0  0  0  0
   -1.8431   -2.0713    0.0000 H   0  0  0  0  0  0  0  0  0  0  0  0
    0.6023    2.9892    0.0000 H   0  0  0  0  0  0  0  0  0  0  0  0
    1.7293    3.2912    0.0000 H   0  0  0  0  0  0  0  0  0  0  0  0
    1.4273    4.4182    0.0000 H   0  0  0  0  0  0  0  0  0  0  0  0
   -1.5411    3.1807    0.0000 H   0  0  0  0  0  0  0  0  0  0  0  0
   -5.1135   -0.5318    0.0000 H   0  0  0  0  0  0  0  0  0  0  0  0
   -5.4154   -1.6588    0.0000 H   0  0  0  0  0  0  0  0  0  0  0  0
   -4.2885   -1.9608    0.0000 H   0  0  0  0  0  0  0  0  0  0  0  0
    1.0148   -2.0713    0.0000 H   0  0  0  0  0  0  0  0  0  0  0  0
   -1.8431    2.0537    0.0000 H   0  0  0  0  0  0  0  0  0  0  0  0
   -0.3036    4.9412    0.0000 H   0  0  0  0  0  0  0  0  0  0  0  0
   -1.1286    5.7662    0.0000 H   0  0  0  0  0  0  0  0  0  0  0  0
   -1.9536    4.9412    0.0000 H   0  0  0  0  0  0  0  0  0  0  0  0
    2.4437    0.4037    0.0000 H   0  0  0  0  0  0  0  0  0  0  0  0
    2.4437   -1.2463    0.0000 H   0  0  0  0  0  0  0  0  0  0  0  0
   -3.6162   -0.0966    0.0000 H   0  0  0  0  0  0  0  0  0  0  0  0
   -4.3568   -0.0966    0.0000 H   0  0  0  0  0  0  0  0  0  0  0  0
   -0.4141   -1.2463    0.0000 H   0  0  0  0  0  0  0  0  0  0  0  0
   -3.2720    0.4037    0.0000 H   0  0  0  0  0  0  0  0  0  0  0  0
    1.0148    1.2287    0.0000 H   0  0  0  0  0  0  0  0  0  0  0  0
    0.6706    4.8534    0.0000 H   0  0  0  0  0  0  0  0  0  0  0  0
   -0.0699    4.8534    0.0000 H   0  0  0  0  0  0  0  0  0  0  0  0
  1  2  1  0  0  0  0
  2  3  1  0  0  0  0
  3  4  1  0  0  0  0
  3  6  1  0  0  0  0
  4  5  1  0  0  0  0
  6  7  4  0  0  0  0
  6 29  4  0  0  0  0
  7  8  4  0  0  0  0
  8  9  4  0  0  0  0
  9 10  1  0  0  0  0
  9 28  4  0  0  0  0
 10 11  1  0  0  0  0
 10 22  1  0  0  0  0
 11 12  4  0  0  0  0
 11 21  4  0  0  0  0
 12 13  4  0  0  0  0
 13 14  4  0  0  0  0
 14 15  1  0  0  0  0
 14 20  4  0  0  0  0
 15 16  1  0  0  0  0
 15 18  1  0  0  0  0
 16 17  1  0  0  0  0
 18 19  1  0  0  0  0
 20 21  4  0  0  0  0
 22 23  4  0  0  0  0
 22 27  4  0  0  0  0
 23 24  4  0  0  0  0
 24 25  4  0  0  0  0
 25 26  4  0  0  0  0
 26 27  4  0  0  0  0
 28 29  4  0  0  0  0
 21 30  1  0  0  0  0
  2 31  1  0  0  0  0
  2 32  1  0  0  0  0
 27 33  1  0  0  0  0
 16 34  1  0  0  0  0
 16 35  1  0  0  0  0
 23 36  1  0  0  0  0
 17 37  1  0  0  0  0
 17 38  1  0  0  0  0
 17 39  1  0  0  0  0
  7 40  1  0  0  0  0
 13 41  1  0  0  0  0
  5 42  1  0  0  0  0
  5 43  1  0  0  0  0
  5 44  1  0  0  0  0
 29 45  1  0  0  0  0
 19 46  1  0  0  0  0
 19 47  1  0  0  0  0
 19 48  1  0  0  0  0
 26 49  1  0  0  0  0
 28 50  1  0  0  0  0
  1 51  1  0  0  0  0
  1 52  1  0  0  0  0
  1 53  1  0  0  0  0
 24 54  1  0  0  0  0
 25 55  1  0  0  0  0
 18 56  1  0  0  0  0
 18 57  1  0  0  0  0
 12 58  1  0  0  0  0
 20 59  1  0  0  0  0
  8 60  1  0  0  0  0
  4 61  1  0  0  0  0
  4 62  1  0  0  0  0
M  CHG  1  10   1
M  END
> <Molecule ChEMBL ID>
CHEMBL1790039

> <Class(50)>
1

> <Class(80)>
1

>  <salt>
true

>  <StandardizerResult>
Tautomerize (ID: Tautomerize)
Aromatize (ID: Aromatize)
Wedge Clean (ID: Wedge Clean)
Clean 2D (ID: Clean2D)

$$$$
CHEMBL964
  Mrv2010 08032110442D          

 36 35  0  0  0  0            999 V2000
   -2.4096   -1.0175    0.0000 C   0  0  0  0  0  0  0  0  0  0  0  0
   -1.5995   -0.8616    0.0000 C   0  0  0  0  0  0  0  0  0  0  0  0
   -1.0594   -1.4852    0.0000 N   0  0  0  0  0  0  0  0  0  0  0  0
   -1.3294   -2.2648    0.0000 C   0  0  0  0  0  0  0  0  0  0  0  0
   -2.1396   -2.4207    0.0000 C   0  0  0  0  0  0  0  0  0  0  0  0
   -0.2493   -1.3293    0.0000 C   0  0  0  0  0  0  0  0  0  0  0  0
    0.0208   -0.5498    0.0000 S   0  0  0  0  0  0  0  0  0  0  0  0
    0.2908   -1.9530    0.0000 S   0  0  0  0  0  0  0  0  0  0  0  0
    1.1010   -1.7970    0.0000 S   0  0  0  0  0  0  0  0  0  0  0  0
    1.6410   -2.4207    0.0000 C   0  0  0  0  0  0  0  0  0  0  0  0
    1.3710   -3.2002    0.0000 S   0  0  0  0  0  0  0  0  0  0  0  0
    2.4512   -2.2648    0.0000 N   0  0  0  0  0  0  0  0  0  0  0  0
    2.9913   -2.8884    0.0000 C   0  0  0  0  0  0  0  0  0  0  0  0
    3.8014   -2.7325    0.0000 C   0  0  0  0  0  0  0  0  0  0  0  0
    2.7212   -1.4852    0.0000 C   0  0  0  0  0  0  0  0  0  0  0  0
    3.5314   -1.3293    0.0000 C   0  0  0  0  0  0  0  0  0  0  0  0
   -2.9477   -2.2547    0.0000 H   0  0  0  0  0  0  0  0  0  0  0  0
   -2.6022   -3.1038    0.0000 H   0  0  0  0  0  0  0  0  0  0  0  0
   -1.6855   -3.1095    0.0000 H   0  0  0  0  0  0  0  0  0  0  0  0
   -1.0083   -0.2861    0.0000 H   0  0  0  0  0  0  0  0  0  0  0  0
   -1.7080   -0.0438    0.0000 H   0  0  0  0  0  0  0  0  0  0  0  0
   -1.1267   -3.0645    0.0000 H   0  0  0  0  0  0  0  0  0  0  0  0
   -0.5669   -2.5797    0.0000 H   0  0  0  0  0  0  0  0  0  0  0  0
    2.5185   -0.6855    0.0000 H   0  0  0  0  0  0  0  0  0  0  0  0
    1.9587   -1.1703    0.0000 H   0  0  0  0  0  0  0  0  0  0  0  0
    4.3395   -1.4953    0.0000 H   0  0  0  0  0  0  0  0  0  0  0  0
    3.9940   -0.6462    0.0000 H   0  0  0  0  0  0  0  0  0  0  0  0
    3.0773   -0.6405    0.0000 H   0  0  0  0  0  0  0  0  0  0  0  0
   -2.5655   -0.2074    0.0000 H   0  0  0  0  0  0  0  0  0  0  0  0
   -3.2198   -1.1734    0.0000 H   0  0  0  0  0  0  0  0  0  0  0  0
   -2.2537   -1.8276    0.0000 H   0  0  0  0  0  0  0  0  0  0  0  0
    2.4001   -3.4639    0.0000 H   0  0  0  0  0  0  0  0  0  0  0  0
    3.0998   -3.7062    0.0000 H   0  0  0  0  0  0  0  0  0  0  0  0
    3.9573   -3.5426    0.0000 H   0  0  0  0  0  0  0  0  0  0  0  0
    4.6115   -2.5766    0.0000 H   0  0  0  0  0  0  0  0  0  0  0  0
    3.6455   -1.9224    0.0000 H   0  0  0  0  0  0  0  0  0  0  0  0
  1  2  1  0  0  0  0
  2  3  1  0  0  0  0
  3  4  1  0  0  0  0
  3  6  1  0  0  0  0
  4  5  1  0  0  0  0
  6  7  2  0  0  0  0
  6  8  1  0  0  0  0
  8  9  1  0  0  0  0
  9 10  1  0  0  0  0
 10 11  2  0  0  0  0
 10 12  1  0  0  0  0
 12 13  1  0  0  0  0
 12 15  1  0  0  0  0
 13 14  1  0  0  0  0
 15 16  1  0  0  0  0
  5 17  1  0  0  0  0
  5 18  1  0  0  0  0
  5 19  1  0  0  0  0
  2 20  1  0  0  0  0
  2 21  1  0  0  0  0
  4 22  1  0  0  0  0
  4 23  1  0  0  0  0
 15 24  1  0  0  0  0
 15 25  1  0  0  0  0
 16 26  1  0  0  0  0
 16 27  1  0  0  0  0
 16 28  1  0  0  0  0
  1 29  1  0  0  0  0
  1 30  1  0  0  0  0
  1 31  1  0  0  0  0
 13 32  1  0  0  0  0
 13 33  1  0  0  0  0
 14 34  1  0  0  0  0
 14 35  1  0  0  0  0
 14 36  1  0  0  0  0
M  END
> <Molecule ChEMBL ID>
CHEMBL964

> <Class(50)>
1

> <Class(80)>
1

>  <salt>
false

>  <StandardizerResult>
Tautomerize (ID: Tautomerize)
Neutralize (ID: Neutralize)
Wedge Clean (ID: Wedge Clean)
Clean 2D (ID: Clean2D)

$$$$
CHEMBL1257128
  Mrv2010 08032110442D          

 51 54  0  0  1  0            999 V2000
    5.7662   -2.3760    0.0000 C   0  0  0  0  0  0  0  0  0  0  0  0
    5.0517   -1.9635    0.0000 C   0  0  0  0  0  0  0  0  0  0  0  0
    4.3372   -2.3760    0.0000 N   0  0  0  0  0  0  0  0  0  0  0  0
    4.3372   -3.2010    0.0000 C   0  0  0  0  0  0  0  0  0  0  0  0
    3.6228   -3.6135    0.0000 C   0  0  0  0  0  0  0  0  0  0  0  0
    3.6228   -1.9635    0.0000 C   0  0  0  0  0  0  0  0  0  0  0  0
    3.6228   -1.1385    0.0000 O   0  0  0  0  0  0  0  0  0  0  0  0
    2.9083   -2.3760    0.0000 N   0  0  0  0  0  0  0  0  0  0  0  0
    2.1938   -1.9635    0.0000 C   0  0  1  0  0  0  0  0  0  0  0  0
    1.4794   -2.3760    0.0000 C   0  0  0  0  0  0  0  0  0  0  0  0
    0.7649   -1.9635    0.0000 C   0  0  0  0  0  0  0  0  0  0  0  0
    0.0504   -2.3760    0.0000 C   0  0  0  0  0  0  0  0  0  0  0  0
   -0.2225   -3.3226    0.0000 C   0  0  0  0  0  0  0  0  0  0  0  0
   -1.0071   -3.5775    0.0000 C   0  0  0  0  0  0  0  0  0  0  0  0
   -1.6202   -3.0255    0.0000 C   0  0  0  0  0  0  0  0  0  0  0  0
   -1.4487   -2.2185    0.0000 C   0  0  0  0  0  0  0  0  0  0  0  0
   -1.9336   -1.5510    0.0000 N   0  0  0  0  0  0  0  0  0  0  0  0
   -1.4487   -0.8836    0.0000 C   0  0  0  0  0  0  0  0  0  0  0  0
   -0.6641   -1.1385    0.0000 C   0  0  0  0  0  0  0  0  0  0  0  0
   -0.6641   -1.9635    0.0000 C   0  0  0  0  0  0  0  0  0  0  0  0
    0.0504   -0.7260    0.0000 C   0  0  0  0  0  0  0  0  0  0  0  0
    0.7649   -1.1385    0.0000 C   0  0  1  0  0  0  0  0  0  0  0  0
    1.4794   -0.7260    0.0000 N   0  0  0  0  0  0  0  0  0  0  0  0
    1.4794    0.0990    0.0000 C   0  0  0  0  0  0  0  0  0  0  0  0
    2.1938   -1.1385    0.0000 C   0  0  0  0  0  0  0  0  0  0  0  0
    3.2103   -2.8991    0.0000 H   0  0  0  0  0  0  0  0  0  0  0  0
    2.9083   -4.0260    0.0000 H   0  0  0  0  0  0  0  0  0  0  0  0
    4.0353   -4.3280    0.0000 H   0  0  0  0  0  0  0  0  0  0  0  0
    0.3706   -3.8961    0.0000 H   0  0  0  0  0  0  0  0  0  0  0  0
    2.8258   -0.6082    0.0000 H   0  0  0  0  0  0  0  0  0  0  0  0
    2.3371   -0.3261    0.0000 H   0  0  0  0  0  0  0  0  0  0  0  0
    0.4207    0.0112    0.0000 H   0  0  0  0  0  0  0  0  0  0  0  0
   -0.3198    0.0112    0.0000 H   0  0  0  0  0  0  0  0  0  0  0  0
   -2.4048   -3.2804    0.0000 H   0  0  0  0  0  0  0  0  0  0  0  0
    5.4220   -1.2263    0.0000 H   0  0  0  0  0  0  0  0  0  0  0  0
    4.6815   -1.2263    0.0000 H   0  0  0  0  0  0  0  0  0  0  0  0
    2.2762   -0.1146    0.0000 H   0  0  0  0  0  0  0  0  0  0  0  0
    1.8919    0.8134    0.0000 H   0  0  0  0  0  0  0  0  0  0  0  0
    0.8960    0.6823    0.0000 H   0  0  0  0  0  0  0  0  0  0  0  0
    2.9083   -1.5510    0.0000 H   0  0  0  0  0  0  0  0  0  0  0  0
    0.7649   -0.3135    0.0000 H   0  0  0  0  0  0  0  0  0  0  0  0
    1.4794   -3.2010    0.0000 H   0  0  0  0  0  0  0  0  0  0  0  0
   -2.7586   -1.5510    0.0000 H   0  0  0  0  0  0  0  0  0  0  0  0
    5.3537   -3.0905    0.0000 H   0  0  0  0  0  0  0  0  0  0  0  0
    6.4807   -2.7885    0.0000 H   0  0  0  0  0  0  0  0  0  0  0  0
    6.1787   -1.6616    0.0000 H   0  0  0  0  0  0  0  0  0  0  0  0
   -1.1786   -4.3845    0.0000 H   0  0  0  0  0  0  0  0  0  0  0  0
   -1.7036   -0.0990    0.0000 H   0  0  0  0  0  0  0  0  0  0  0  0
    4.7906   -3.8903    0.0000 H   0  0  0  0  0  0  0  0  0  0  0  0
    5.1608   -3.2490    0.0000 H   0  0  0  0  0  0  0  0  0  0  0  0
    2.3249   -2.9594    0.0000 H   0  0  0  0  0  0  0  0  0  0  0  0
  1  2  1  0  0  0  0
  2  3  1  0  0  0  0
  3  4  1  0  0  0  0
  3  6  1  0  0  0  0
  4  5  1  0  0  0  0
  6  7  2  0  0  0  0
  6  8  1  0  0  0  0
  9  8  1  0  0  0  0
  9 10  1  0  0  0  0
  9 25  1  0  0  0  0
 10 11  2  0  0  0  0
 11 12  1  0  0  0  0
 22 11  1  0  0  0  0
 12 13  4  0  0  0  0
 12 20  4  0  0  0  0
 13 14  4  0  0  0  0
 14 15  4  0  0  0  0
 15 16  4  0  0  0  0
 16 17  4  0  0  0  0
 16 20  4  0  0  0  0
 17 18  4  0  0  0  0
 18 19  4  0  0  0  0
 19 20  4  0  0  0  0
 19 21  1  0  0  0  0
 22 21  1  0  0  0  0
 22 23  1  0  0  0  0
 23 24  1  0  0  0  0
 23 25  1  0  0  0  0
  5 26  1  0  0  0  0
  5 27  1  0  0  0  0
  5 28  1  0  0  0  0
 13 29  1  0  0  0  0
 25 30  1  0  0  0  0
 25 31  1  0  0  0  0
 21 32  1  0  0  0  0
 21 33  1  0  0  0  0
 15 34  1  0  0  0  0
  2 35  1  0  0  0  0
  2 36  1  0  0  0  0
 24 37  1  0  0  0  0
 24 38  1  0  0  0  0
 24 39  1  0  0  0  0
  9 40  1  6  0  0  0
 22 41  1  6  0  0  0
 10 42  1  0  0  0  0
 17 43  1  0  0  0  0
  1 44  1  0  0  0  0
  1 45  1  0  0  0  0
  1 46  1  0  0  0  0
 14 47  1  0  0  0  0
 18 48  1  0  0  0  0
  4 49  1  0  0  0  0
  4 50  1  0  0  0  0
  8 51  1  0  0  0  0
M  END
> <Molecule ChEMBL ID>
CHEMBL1257128

> <Class(50)>
1

> <Class(80)>
1

>  <salt>
true

>  <StandardizerResult>
Tautomerize (ID: Tautomerize)
Transform (ID: Transform NO2 (1))
Aromatize (ID: Aromatize)
Wedge Clean (ID: Wedge Clean)
Clean 2D (ID: Clean2D)

$$$$
CHEMBL8565
  Mrv2010 08032110442D          

 38 40  0  0  0  0            999 V2000
    3.8980    0.6536    0.0000 C   0  0  0  0  0  0  0  0  0  0  0  0
    3.1836    0.2411    0.0000 C   0  0  0  0  0  0  0  0  0  0  0  0
    2.4691    0.6536    0.0000 C   0  0  0  0  0  0  0  0  0  0  0  0
    1.7546    0.2411    0.0000 N   0  0  0  0  0  0  0  0  0  0  0  0
    1.7546   -0.5839    0.0000 C   0  0  0  0  0  0  0  0  0  0  0  0
    2.4691   -0.9964    0.0000 O   0  0  0  0  0  0  0  0  0  0  0  0
    1.0402   -0.9964    0.0000 N   0  0  0  0  0  0  0  0  0  0  0  0
    0.3257   -0.5839    0.0000 C   0  0  0  0  0  0  0  0  0  0  0  0
   -0.4589   -0.8388    0.0000 N   0  0  0  0  0  0  0  0  0  0  0  0
   -0.9439   -0.1714    0.0000 C   0  0  0  0  0  0  0  0  0  0  0  0
   -1.7689   -0.1714    0.0000 C   0  0  0  0  0  0  0  0  0  0  0  0
   -2.1814   -0.8858    0.0000 C   0  0  0  0  0  0  0  0  0  0  0  0
   -3.0064   -0.8858    0.0000 C   0  0  0  0  0  0  0  0  0  0  0  0
   -3.4189   -0.1714    0.0000 C   0  0  0  0  0  0  0  0  0  0  0  0
   -4.2439   -0.1714    0.0000 S   0  0  0  0  0  0  0  0  0  0  0  0
   -5.0689   -0.1714    0.0000 O   0  0  0  0  0  0  0  0  0  0  0  0
   -4.2439    0.6536    0.0000 O   0  0  0  0  0  0  0  0  0  0  0  0
   -4.2439   -0.9964    0.0000 O   0  0  0  0  0  0  0  0  0  0  0  0
   -3.0064    0.5431    0.0000 C   0  0  0  0  0  0  0  0  0  0  0  0
   -2.1814    0.5431    0.0000 C   0  0  0  0  0  0  0  0  0  0  0  0
   -0.4589    0.4961    0.0000 N   0  0  0  0  0  0  0  0  0  0  0  0
    0.3257    0.2411    0.0000 C   0  0  0  0  0  0  0  0  0  0  0  0
    1.0402    0.6536    0.0000 C   0  0  0  0  0  0  0  0  0  0  0  0
    1.0402    1.4786    0.0000 O   0  0  0  0  0  0  0  0  0  0  0  0
    2.8394    1.3909    0.0000 H   0  0  0  0  0  0  0  0  0  0  0  0
    2.0988    1.3909    0.0000 H   0  0  0  0  0  0  0  0  0  0  0  0
   -3.4189    1.2576    0.0000 H   0  0  0  0  0  0  0  0  0  0  0  0
   -3.4189   -1.6003    0.0000 H   0  0  0  0  0  0  0  0  0  0  0  0
    1.0402   -1.8214    0.0000 H   0  0  0  0  0  0  0  0  0  0  0  0
   -1.7689    1.2576    0.0000 H   0  0  0  0  0  0  0  0  0  0  0  0
    4.3105   -0.0608    0.0000 H   0  0  0  0  0  0  0  0  0  0  0  0
    4.6125    1.0661    0.0000 H   0  0  0  0  0  0  0  0  0  0  0  0
    3.4855    1.3681    0.0000 H   0  0  0  0  0  0  0  0  0  0  0  0
    2.8133   -0.4961    0.0000 H   0  0  0  0  0  0  0  0  0  0  0  0
    3.5538   -0.4961    0.0000 H   0  0  0  0  0  0  0  0  0  0  0  0
   -1.7689   -1.6003    0.0000 H   0  0  0  0  0  0  0  0  0  0  0  0
   -0.7139    1.2807    0.0000 H   0  0  0  0  0  0  0  0  0  0  0  0
   -4.9583   -1.4089    0.0000 H   0  0  0  0  0  0  0  0  0  0  0  0
  1  2  1  0  0  0  0
  2  3  1  0  0  0  0
  3  4  1  0  0  0  0
  4  5  1  0  0  0  0
  4 23  1  0  0  0  0
  5  6  2  0  0  0  0
  5  7  1  0  0  0  0
  7  8  1  0  0  0  0
  8  9  4  0  0  0  0
  8 22  4  0  0  0  0
  9 10  4  0  0  0  0
 10 11  1  0  0  0  0
 10 21  4  0  0  0  0
 11 12  4  0  0  0  0
 11 20  4  0  0  0  0
 12 13  4  0  0  0  0
 13 14  4  0  0  0  0
 14 15  1  0  0  0  0
 14 19  4  0  0  0  0
 15 16  2  0  0  0  0
 15 17  2  0  0  0  0
 15 18  1  0  0  0  0
 19 20  4  0  0  0  0
 21 22  4  0  0  0  0
 22 23  1  0  0  0  0
 23 24  2  0  0  0  0
  3 25  1  0  0  0  0
  3 26  1  0  0  0  0
 19 27  1  0  0  0  0
 13 28  1  0  0  0  0
  7 29  1  0  0  0  0
 20 30  1  0  0  0  0
  1 31  1  0  0  0  0
  1 32  1  0  0  0  0
  1 33  1  0  0  0  0
  2 34  1  0  0  0  0
  2 35  1  0  0  0  0
 12 36  1  0  0  0  0
 21 37  1  0  0  0  0
 18 38  1  0  0  0  0
M  END
> <Molecule ChEMBL ID>
CHEMBL8565

> <Class(50)>
1

> <Class(80)>
1

>  <salt>
false

>  <StandardizerResult>
Tautomerize (ID: Tautomerize)
Neutralize (ID: Neutralize)
Aromatize (ID: Aromatize)
Wedge Clean (ID: Wedge Clean)
Clean 2D (ID: Clean2D)

$$$$
CHEMBL198997
  Mrv2010 08032110442D          

 44 45  0  0  0  0            999 V2000
   -3.0804   -2.6711    0.0000 C   0  0  0  0  0  0  0  0  0  0  0  0
   -2.3659   -2.2586    0.0000 C   0  0  0  0  0  0  0  0  0  0  0  0
   -1.6515   -2.6711    0.0000 C   0  0  0  0  0  0  0  0  0  0  0  0
   -0.9370   -2.2586    0.0000 C   0  0  0  0  0  0  0  0  0  0  0  0
   -0.2225   -2.6711    0.0000 O   0  0  0  0  0  0  0  0  0  0  0  0
    0.4919   -2.2586    0.0000 C   0  0  0  0  0  0  0  0  0  0  0  0
    1.2064   -2.6711    0.0000 C   0  0  0  0  0  0  0  0  0  0  0  0
    1.9209   -2.2586    0.0000 O   0  0  0  0  0  0  0  0  0  0  0  0
    2.6353   -2.6711    0.0000 C   0  0  0  0  0  0  0  0  0  0  0  0
    3.3890   -2.3356    0.0000 N   0  0  0  0  0  0  0  0  0  0  0  0
    3.9411   -2.9487    0.0000 C   0  0  0  0  0  0  0  0  0  0  0  0
    4.7615   -2.8624    0.0000 C   0  0  0  0  0  0  0  0  0  0  0  0
    5.0971   -2.1087    0.0000 C   0  0  0  0  0  0  0  0  0  0  0  0
    5.9176   -2.0225    0.0000 C   0  0  0  0  0  0  0  0  0  0  0  0
    6.4025   -2.6900    0.0000 C   0  0  0  0  0  0  0  0  0  0  0  0
    7.2230   -2.6037    0.0000 C   0  0  0  0  0  0  0  0  0  0  0  0
    7.5585   -1.8500    0.0000 O   0  0  0  0  0  0  0  0  0  0  0  0
    7.7079   -3.2712    0.0000 O   0  0  0  0  0  0  0  0  0  0  0  0
    6.0669   -3.4436    0.0000 C   0  0  0  0  0  0  0  0  0  0  0  0
    6.5519   -4.1111    0.0000 F   0  0  0  0  0  0  0  0  0  0  0  0
    5.2465   -3.5299    0.0000 C   0  0  0  0  0  0  0  0  0  0  0  0
    3.5286   -3.6631    0.0000 S   0  0  0  0  0  0  0  0  0  0  0  0
    2.7216   -3.4916    0.0000 C   0  0  0  0  0  0  0  0  0  0  0  0
    2.1085   -4.0436    0.0000 C   0  0  0  0  0  0  0  0  0  0  0  0
    0.8361   -3.4084    0.0000 H   0  0  0  0  0  0  0  0  0  0  0  0
    1.5767   -3.4084    0.0000 H   0  0  0  0  0  0  0  0  0  0  0  0
    1.3237   -4.2979    0.0000 H   0  0  0  0  0  0  0  0  0  0  0  0
    2.0505   -4.8666    0.0000 H   0  0  0  0  0  0  0  0  0  0  0  0
    2.8499   -4.4055    0.0000 H   0  0  0  0  0  0  0  0  0  0  0  0
    4.6122   -1.4413    0.0000 H   0  0  0  0  0  0  0  0  0  0  0  0
   -1.9957   -1.5214    0.0000 H   0  0  0  0  0  0  0  0  0  0  0  0
   -2.7362   -1.5214    0.0000 H   0  0  0  0  0  0  0  0  0  0  0  0
   -3.4929   -1.9567    0.0000 H   0  0  0  0  0  0  0  0  0  0  0  0
   -3.7949   -3.0836    0.0000 H   0  0  0  0  0  0  0  0  0  0  0  0
   -2.6679   -3.3856    0.0000 H   0  0  0  0  0  0  0  0  0  0  0  0
   -2.0217   -3.4084    0.0000 H   0  0  0  0  0  0  0  0  0  0  0  0
   -1.2812   -3.4084    0.0000 H   0  0  0  0  0  0  0  0  0  0  0  0
   -0.5667   -1.5214    0.0000 H   0  0  0  0  0  0  0  0  0  0  0  0
   -1.3073   -1.5214    0.0000 H   0  0  0  0  0  0  0  0  0  0  0  0
    0.8622   -1.5214    0.0000 H   0  0  0  0  0  0  0  0  0  0  0  0
    0.1217   -1.5214    0.0000 H   0  0  0  0  0  0  0  0  0  0  0  0
    7.3723   -4.0248    0.0000 H   0  0  0  0  0  0  0  0  0  0  0  0
    6.2531   -1.2688    0.0000 H   0  0  0  0  0  0  0  0  0  0  0  0
    4.9109   -4.2835    0.0000 H   0  0  0  0  0  0  0  0  0  0  0  0
  1  2  1  0  0  0  0
  2  3  1  0  0  0  0
  3  4  1  0  0  0  0
  4  5  1  0  0  0  0
  5  6  1  0  0  0  0
  6  7  1  0  0  0  0
  7  8  1  0  0  0  0
  8  9  1  0  0  0  0
  9 10  4  0  0  0  0
  9 23  4  0  0  0  0
 10 11  4  0  0  0  0
 11 12  1  0  0  0  0
 11 22  4  0  0  0  0
 12 13  4  0  0  0  0
 12 21  4  0  0  0  0
 13 14  4  0  0  0  0
 14 15  4  0  0  0  0
 15 16  1  0  0  0  0
 15 19  4  0  0  0  0
 16 17  2  0  0  0  0
 16 18  1  0  0  0  0
 19 20  1  0  0  0  0
 19 21  4  0  0  0  0
 22 23  4  0  0  0  0
 23 24  1  0  0  0  0
  7 25  1  0  0  0  0
  7 26  1  0  0  0  0
 24 27  1  0  0  0  0
 24 28  1  0  0  0  0
 24 29  1  0  0  0  0
 13 30  1  0  0  0  0
  2 31  1  0  0  0  0
  2 32  1  0  0  0  0
  1 33  1  0  0  0  0
  1 34  1  0  0  0  0
  1 35  1  0  0  0  0
  3 36  1  0  0  0  0
  3 37  1  0  0  0  0
  4 38  1  0  0  0  0
  4 39  1  0  0  0  0
  6 40  1  0  0  0  0
  6 41  1  0  0  0  0
 18 42  1  0  0  0  0
 14 43  1  0  0  0  0
 21 44  1  0  0  0  0
M  END
> <Molecule ChEMBL ID>
CHEMBL198997

> <Class(50)>
1

> <Class(80)>
1

>  <salt>
false

>  <StandardizerResult>
Tautomerize (ID: Tautomerize)
Neutralize (ID: Neutralize)
Aromatize (ID: Aromatize)
Wedge Clean (ID: Wedge Clean)
Clean 2D (ID: Clean2D)

$$$$
CHEMBL4303661
  Mrv2010 08032110442D          

 86 86  0  0  1  0            999 V2000
   -3.6013   -2.6431    0.0000 C   0  0  0  0  0  0  0  0  0  0  0  0
   -2.9323   -2.1604    0.0000 C   0  0  0  0  0  0  0  0  0  0  0  0
   -2.1797   -2.4983    0.0000 C   0  0  0  0  0  0  0  0  0  0  0  0
   -1.5107   -2.0155    0.0000 C   0  0  0  0  0  0  0  0  0  0  0  0
   -0.7581   -2.3535    0.0000 C   0  0  0  0  0  0  0  0  0  0  0  0
   -0.0892   -1.8707    0.0000 C   0  0  0  0  0  0  0  0  0  0  0  0
    0.6635   -2.2086    0.0000 C   0  0  0  0  0  0  0  0  0  0  0  0
    1.3324   -1.7258    0.0000 C   0  0  0  0  0  0  0  0  0  0  0  0
    2.0850   -2.0638    0.0000 C   0  0  0  0  0  0  0  0  0  0  0  0
    2.7540   -1.5810    0.0000 C   0  0  0  0  0  0  0  0  0  0  0  0
    3.5066   -1.9190    0.0000 C   0  0  0  0  0  0  0  0  0  0  0  0
    4.1756   -1.4362    0.0000 C   0  0  0  0  0  0  0  0  0  0  0  0
    4.9282   -1.7741    0.0000 C   0  0  0  0  0  0  0  0  0  0  0  0
    5.5972   -1.2913    0.0000 C   0  0  0  0  0  0  0  0  0  0  0  0
    6.3498   -1.6293    0.0000 C   0  0  0  0  0  0  0  0  0  0  0  0
    7.0188   -1.1465    0.0000 C   0  0  0  0  0  0  0  0  0  0  0  0
    7.7714   -1.4844    0.0000 C   0  0  0  0  0  0  0  0  0  0  0  0
    8.4403   -1.0016    0.0000 C   0  0  0  0  0  0  0  0  0  0  0  0
    9.1929   -1.3396    0.0000 S   0  3  0  0  0  0  0  0  0  0  0  0
    9.2766   -2.1604    0.0000 C   0  0  0  0  0  0  0  0  0  0  0  0
   10.0292   -2.4983    0.0000 C   0  0  0  0  0  0  0  0  0  0  0  0
   10.1128   -3.3191    0.0000 C   0  0  0  0  0  0  0  0  0  0  0  0
    9.8619   -0.8568    0.0000 C   0  0  0  0  0  0  0  0  0  0  0  0
    9.7783   -0.0361    0.0000 C   0  0  0  0  0  0  0  0  0  0  0  0
   10.4473    0.4467    0.0000 C   0  0  0  0  0  0  0  0  0  0  0  0
   11.1999    0.1088    0.0000 C   0  0  0  0  0  0  0  0  0  0  0  0
   11.2835   -0.7120    0.0000 C   0  0  0  0  0  0  0  0  0  0  0  0
   10.6145   -1.1948    0.0000 C   0  0  0  0  0  0  0  0  0  0  0  0
   10.6982   -2.0155    0.0000 C   0  0  0  0  0  0  0  0  0  0  0  0
   10.4407   -2.7993    0.0000 O   0  0  0  0  0  0  0  0  0  0  0  0
   11.4508   -2.3535    0.0000 O   0  0  0  0  0  0  0  0  0  0  0  0
   11.5344   -3.1742    0.0000 C   0  0  0  0  0  0  0  0  0  0  0  0
   10.8654   -3.6570    0.0000 C   0  0  0  0  0  0  0  0  0  0  0  0
    4.6346   -2.5451    0.0000 H   0  0  0  0  0  0  0  0  0  0  0  0
    5.3713   -2.4700    0.0000 H   0  0  0  0  0  0  0  0  0  0  0  0
   10.3637    1.2675    0.0000 H   0  0  0  0  0  0  0  0  0  0  0  0
   12.0553   -3.8140    0.0000 H   0  0  0  0  0  0  0  0  0  0  0  0
   12.3586   -3.1385    0.0000 H   0  0  0  0  0  0  0  0  0  0  0  0
   -1.2171   -1.2445    0.0000 H   0  0  0  0  0  0  0  0  0  0  0  0
   -1.9538   -1.3196    0.0000 H   0  0  0  0  0  0  0  0  0  0  0  0
    5.8908   -0.5203    0.0000 H   0  0  0  0  0  0  0  0  0  0  0  0
    5.1541   -0.5954    0.0000 H   0  0  0  0  0  0  0  0  0  0  0  0
    6.0562   -2.4003    0.0000 H   0  0  0  0  0  0  0  0  0  0  0  0
    6.7929   -2.3252    0.0000 H   0  0  0  0  0  0  0  0  0  0  0  0
    7.3124   -0.3755    0.0000 H   0  0  0  0  0  0  0  0  0  0  0  0
    6.5757   -0.4506    0.0000 H   0  0  0  0  0  0  0  0  0  0  0  0
   12.0361   -1.0499    0.0000 H   0  0  0  0  0  0  0  0  0  0  0  0
    4.4692   -0.6652    0.0000 H   0  0  0  0  0  0  0  0  0  0  0  0
    3.7325   -0.7402    0.0000 H   0  0  0  0  0  0  0  0  0  0  0  0
    3.2130   -2.6899    0.0000 H   0  0  0  0  0  0  0  0  0  0  0  0
    3.9497   -2.6149    0.0000 H   0  0  0  0  0  0  0  0  0  0  0  0
    1.6261   -0.9549    0.0000 H   0  0  0  0  0  0  0  0  0  0  0  0
    0.8894   -1.0299    0.0000 H   0  0  0  0  0  0  0  0  0  0  0  0
    8.7340   -0.2307    0.0000 H   0  0  0  0  0  0  0  0  0  0  0  0
    7.9973   -0.3057    0.0000 H   0  0  0  0  0  0  0  0  0  0  0  0
    9.3417   -3.6123    0.0000 H   0  0  0  0  0  0  0  0  0  0  0  0
    9.7748   -4.0717    0.0000 H   0  0  0  0  0  0  0  0  0  0  0  0
   10.4060   -4.0902    0.0000 H   0  0  0  0  0  0  0  0  0  0  0  0
   -2.6387   -1.3894    0.0000 H   0  0  0  0  0  0  0  0  0  0  0  0
   -3.3754   -1.4644    0.0000 H   0  0  0  0  0  0  0  0  0  0  0  0
    9.0257    0.3019    0.0000 H   0  0  0  0  0  0  0  0  0  0  0  0
    7.4777   -2.2554    0.0000 H   0  0  0  0  0  0  0  0  0  0  0  0
    8.2144   -2.1804    0.0000 H   0  0  0  0  0  0  0  0  0  0  0  0
    0.2045   -1.0997    0.0000 H   0  0  0  0  0  0  0  0  0  0  0  0
   -0.5322   -1.1748    0.0000 H   0  0  0  0  0  0  0  0  0  0  0  0
    3.0476   -0.8100    0.0000 H   0  0  0  0  0  0  0  0  0  0  0  0
    2.3109   -0.8851    0.0000 H   0  0  0  0  0  0  0  0  0  0  0  0
   10.8142   -4.4804    0.0000 H   0  0  0  0  0  0  0  0  0  0  0  0
   11.3909   -4.2930    0.0000 H   0  0  0  0  0  0  0  0  0  0  0  0
   11.6837   -3.7620    0.0000 H   0  0  0  0  0  0  0  0  0  0  0  0
   -1.0518   -3.1244    0.0000 H   0  0  0  0  0  0  0  0  0  0  0  0
   -0.3151   -3.0494    0.0000 H   0  0  0  0  0  0  0  0  0  0  0  0
   -2.4733   -3.2693    0.0000 H   0  0  0  0  0  0  0  0  0  0  0  0
   -1.7366   -3.1942    0.0000 H   0  0  0  0  0  0  0  0  0  0  0  0
   -4.0841   -1.9742    0.0000 H   0  0  0  0  0  0  0  0  0  0  0  0
   -4.2703   -3.1259    0.0000 H   0  0  0  0  0  0  0  0  0  0  0  0
   -3.1185   -3.3121    0.0000 H   0  0  0  0  0  0  0  0  0  0  0  0
    0.3698   -2.9796    0.0000 H   0  0  0  0  0  0  0  0  0  0  0  0
    1.1065   -2.9046    0.0000 H   0  0  0  0  0  0  0  0  0  0  0  0
   11.8689    0.5916    0.0000 H   0  0  0  0  0  0  0  0  0  0  0  0
    1.7914   -2.8348    0.0000 H   0  0  0  0  0  0  0  0  0  0  0  0
    2.5281   -2.7597    0.0000 H   0  0  0  0  0  0  0  0  0  0  0  0
    9.9455   -1.6776    0.0000 H   0  0  0  0  0  0  0  0  0  0  0  0
    9.3602   -2.9811    0.0000 H   0  0  0  0  0  0  0  0  0  0  0  0
    8.4621   -2.2916    0.0000 H   0  0  0  0  0  0  0  0  0  0  0  0
    8.8954   -2.8920    0.0000 H   0  0  0  0  0  0  0  0  0  0  0  0
  1  2  1  0  0  0  0
  2  3  1  0  0  0  0
  3  4  1  0  0  0  0
  4  5  1  0  0  0  0
  5  6  1  0  0  0  0
  6  7  1  0  0  0  0
  7  8  1  0  0  0  0
  8  9  1  0  0  0  0
  9 10  1  0  0  0  0
 10 11  1  0  0  0  0
 11 12  1  0  0  0  0
 12 13  1  0  0  0  0
 13 14  1  0  0  0  0
 14 15  1  0  0  0  0
 15 16  1  0  0  0  0
 16 17  1  0  0  0  0
 17 18  1  0  0  0  0
 18 19  1  0  0  0  0
 19 20  1  0  0  0  0
 19 23  1  0  0  0  0
 20 21  1  0  0  0  0
 21 22  1  0  0  0  0
 23 24  4  0  0  0  0
 23 28  4  0  0  0  0
 24 25  4  0  0  0  0
 25 26  4  0  0  0  0
 26 27  4  0  0  0  0
 27 28  4  0  0  0  0
 28 29  1  0  0  0  0
 29 30  2  0  0  0  0
 29 31  1  0  0  0  0
 31 32  1  0  0  0  0
 32 33  1  0  0  0  0
 13 34  1  0  0  0  0
 13 35  1  0  0  0  0
 25 36  1  0  0  0  0
 32 37  1  0  0  0  0
 32 38  1  0  0  0  0
  4 39  1  0  0  0  0
  4 40  1  0  0  0  0
 14 41  1  0  0  0  0
 14 42  1  0  0  0  0
 15 43  1  0  0  0  0
 15 44  1  0  0  0  0
 16 45  1  0  0  0  0
 16 46  1  0  0  0  0
 27 47  1  0  0  0  0
 12 48  1  0  0  0  0
 12 49  1  0  0  0  0
 11 50  1  0  0  0  0
 11 51  1  0  0  0  0
  8 52  1  0  0  0  0
  8 53  1  0  0  0  0
 18 54  1  0  0  0  0
 18 55  1  0  0  0  0
 22 56  1  0  0  0  0
 22 57  1  0  0  0  0
 22 58  1  0  0  0  0
  2 59  1  0  0  0  0
  2 60  1  0  0  0  0
 24 61  1  0  0  0  0
 17 62  1  0  0  0  0
 17 63  1  0  0  0  0
  6 64  1  0  0  0  0
  6 65  1  0  0  0  0
 10 66  1  0  0  0  0
 10 67  1  0  0  0  0
 33 68  1  0  0  0  0
 33 69  1  0  0  0  0
 33 70  1  0  0  0  0
  5 71  1  0  0  0  0
  5 72  1  0  0  0  0
  3 73  1  0  0  0  0
  3 74  1  0  0  0  0
  1 75  1  0  0  0  0
  1 76  1  0  0  0  0
  1 77  1  0  0  0  0
  7 78  1  0  0  0  0
  7 79  1  0  0  0  0
 26 80  1  0  0  0  0
  9 81  1  0  0  0  0
  9 82  1  0  0  0  0
 21 83  1  0  0  0  0
 21 84  1  0  0  0  0
 20 85  1  0  0  0  0
 20 86  1  0  0  0  0
M  CHG  1  19   1
M  END
> <Molecule ChEMBL ID>
CHEMBL4303661

> <Class(50)>
1

> <Class(80)>
1

>  <salt>
false

>  <StandardizerResult>
Tautomerize (ID: Tautomerize)
Transform (ID: Transform NO2 (1))
Aromatize (ID: Aromatize)
Wedge Clean (ID: Wedge Clean)
Clean 2D (ID: Clean2D)

$$$$
CHEMBL4061483
  Mrv2010 08032110442D          

 47 50  0  0  1  0            999 V2000
   -4.9340   -1.7161    0.0000 C   0  0  0  0  0  0  0  0  0  0  0  0
   -4.1090   -1.7161    0.0000 C   0  0  0  0  0  0  0  0  0  0  0  0
   -3.6965   -1.0016    0.0000 C   0  0  0  0  0  0  0  0  0  0  0  0
   -2.8715   -1.0016    0.0000 C   0  0  0  0  0  0  0  0  0  0  0  0
   -2.4590   -0.2872    0.0000 S   0  0  0  0  0  0  0  0  0  0  0  0
   -2.8715    0.4273    0.0000 O   0  0  0  0  0  0  0  0  0  0  0  0
   -1.6340   -0.2872    0.0000 C   0  0  0  0  0  0  0  0  0  0  0  0
   -1.1491    0.3803    0.0000 S   0  0  0  0  0  0  0  0  0  0  0  0
   -0.3645    0.1253    0.0000 C   0  0  0  0  0  0  0  0  0  0  0  0
    0.3500    0.5378    0.0000 N   0  0  0  0  0  0  0  0  0  0  0  0
    1.0644    0.1253    0.0000 C   0  0  0  0  0  0  0  0  0  0  0  0
    1.7789    0.5378    0.0000 C   0  0  0  0  0  0  0  0  0  0  0  0
    1.8652    1.3583    0.0000 C   0  0  0  0  0  0  0  0  0  0  0  0
    2.6721    1.5298    0.0000 C   0  0  0  0  0  0  0  0  0  0  0  0
    3.0846    0.8154    0.0000 C   0  0  0  0  0  0  0  0  0  0  0  0
    2.5326    0.2023    0.0000 S   0  0  0  0  0  0  0  0  0  0  0  0
    1.0644   -0.6997    0.0000 C   0  0  0  0  0  0  0  0  0  0  0  0
    0.3500   -1.1122    0.0000 C   0  0  0  0  0  0  0  0  0  0  0  0
    0.3500   -1.9372    0.0000 C   0  0  0  0  0  0  0  0  0  0  0  0
    1.0644   -2.3497    0.0000 C   0  0  0  0  0  0  0  0  0  0  0  0
    1.0644   -3.1747    0.0000 C   0  0  0  0  0  0  0  0  0  0  0  0
    0.3500   -3.5872    0.0000 C   0  0  0  0  0  0  0  0  0  0  0  0
   -0.3645   -3.1747    0.0000 C   0  0  0  0  0  0  0  0  0  0  0  0
   -0.3645   -2.3497    0.0000 C   0  0  0  0  0  0  0  0  0  0  0  0
   -0.3645   -0.6997    0.0000 C   0  0  0  0  0  0  0  0  0  0  0  0
   -1.1491   -0.9546    0.0000 C   0  0  0  0  0  0  0  0  0  0  0  0
   -1.4041   -1.7392    0.0000 N   0  0  0  0  0  0  0  0  0  0  0  0
   -4.9340   -0.8911    0.0000 H   0  0  0  0  0  0  0  0  0  0  0  0
   -5.7590   -1.7161    0.0000 H   0  0  0  0  0  0  0  0  0  0  0  0
   -4.9340   -2.5411    0.0000 H   0  0  0  0  0  0  0  0  0  0  0  0
    1.7789   -1.1122    0.0000 H   0  0  0  0  0  0  0  0  0  0  0  0
   -4.0611   -2.5397    0.0000 H   0  0  0  0  0  0  0  0  0  0  0  0
   -3.4198   -2.1695    0.0000 H   0  0  0  0  0  0  0  0  0  0  0  0
    0.3500   -4.4122    0.0000 H   0  0  0  0  0  0  0  0  0  0  0  0
   -1.0790   -3.5872    0.0000 H   0  0  0  0  0  0  0  0  0  0  0  0
   -2.0700   -2.2262    0.0000 H   0  0  0  0  0  0  0  0  0  0  0  0
   -1.3692   -2.5635    0.0000 H   0  0  0  0  0  0  0  0  0  0  0  0
    3.9051    0.7291    0.0000 H   0  0  0  0  0  0  0  0  0  0  0  0
   -2.8236   -1.8252    0.0000 H   0  0  0  0  0  0  0  0  0  0  0  0
   -2.1823   -1.4550    0.0000 H   0  0  0  0  0  0  0  0  0  0  0  0
    3.0077    2.2835    0.0000 H   0  0  0  0  0  0  0  0  0  0  0  0
   -3.7445   -0.1780    0.0000 H   0  0  0  0  0  0  0  0  0  0  0  0
   -4.3858   -0.5483    0.0000 H   0  0  0  0  0  0  0  0  0  0  0  0
    1.2521    1.9103    0.0000 H   0  0  0  0  0  0  0  0  0  0  0  0
    1.7789   -3.5872    0.0000 H   0  0  0  0  0  0  0  0  0  0  0  0
   -1.0790   -1.9372    0.0000 H   0  0  0  0  0  0  0  0  0  0  0  0
    1.7789   -1.9372    0.0000 H   0  0  0  0  0  0  0  0  0  0  0  0
  1  2  1  0  0  0  0
  2  3  1  0  0  0  0
  3  4  1  0  0  0  0
  4  5  1  0  0  0  0
  5  6  2  0  0  0  0
  5  7  1  0  0  0  0
  7  8  4  0  0  0  0
  7 26  4  0  0  0  0
  8  9  4  0  0  0  0
  9 10  4  0  0  0  0
  9 25  4  0  0  0  0
 10 11  4  0  0  0  0
 11 12  1  0  0  0  0
 11 17  4  0  0  0  0
 12 13  4  0  0  0  0
 12 16  4  0  0  0  0
 13 14  4  0  0  0  0
 14 15  4  0  0  0  0
 15 16  4  0  0  0  0
 17 18  4  0  0  0  0
 18 19  1  0  0  0  0
 18 25  4  0  0  0  0
 19 20  4  0  0  0  0
 19 24  4  0  0  0  0
 20 21  4  0  0  0  0
 21 22  4  0  0  0  0
 22 23  4  0  0  0  0
 23 24  4  0  0  0  0
 25 26  4  0  0  0  0
 26 27  1  0  0  0  0
  1 28  1  0  0  0  0
  1 29  1  0  0  0  0
  1 30  1  0  0  0  0
 17 31  1  0  0  0  0
  2 32  1  0  0  0  0
  2 33  1  0  0  0  0
 22 34  1  0  0  0  0
 23 35  1  0  0  0  0
 27 36  1  0  0  0  0
 27 37  1  0  0  0  0
 15 38  1  0  0  0  0
  4 39  1  0  0  0  0
  4 40  1  0  0  0  0
 14 41  1  0  0  0  0
  3 42  1  0  0  0  0
  3 43  1  0  0  0  0
 13 44  1  0  0  0  0
 21 45  1  0  0  0  0
 24 46  1  0  0  0  0
 20 47  1  0  0  0  0
M  END
> <Molecule ChEMBL ID>
CHEMBL4061483

> <Class(50)>
1

> <Class(80)>
1

>  <salt>
false

>  <StandardizerResult>
Tautomerize (ID: Tautomerize)
Transform (ID: Transform NO2 (1))
Aromatize (ID: Aromatize)
Wedge Clean (ID: Wedge Clean)
Clean 2D (ID: Clean2D)

$$$$
CHEMBL481
  Mrv2010 08032110442D          

 81 87  0  0  1  0            999 V2000
   -0.6971   -0.9667    0.0000 C   0  0  0  0  0  0  0  0  0  0  0  0
   -1.5041   -0.7952    0.0000 C   0  0  0  0  0  0  0  0  0  0  0  0
   -1.7590   -0.0105    0.0000 C   0  0  0  0  0  0  0  0  0  0  0  0
   -2.5660    0.1610    0.0000 C   0  0  0  0  0  0  0  0  0  0  0  0
   -2.8209    0.9456    0.0000 C   0  0  0  0  0  0  0  0  0  0  0  0
   -2.2689    1.5587    0.0000 N   0  0  0  0  0  0  0  0  0  0  0  0
   -1.4619    1.3872    0.0000 C   0  0  0  0  0  0  0  0  0  0  0  0
   -0.9099    2.0003    0.0000 C   0  0  0  0  0  0  0  0  0  0  0  0
   -0.1029    1.8287    0.0000 C   0  0  0  0  0  0  0  0  0  0  0  0
    0.1520    1.0441    0.0000 C   0  0  0  0  0  0  0  0  0  0  0  0
    0.9590    0.8726    0.0000 O   0  0  0  0  0  0  0  0  0  0  0  0
    1.2139    0.0880    0.0000 C   0  0  0  0  0  0  0  0  0  0  0  0
    0.6619   -0.5251    0.0000 O   0  0  0  0  0  0  0  0  0  0  0  0
    2.0209   -0.0836    0.0000 N   0  0  0  0  0  0  0  0  0  0  0  0
    2.5729    0.5295    0.0000 C   0  0  0  0  0  0  0  0  0  0  0  0
    3.3799    0.3580    0.0000 C   0  0  0  0  0  0  0  0  0  0  0  0
    3.6349   -0.4266    0.0000 C   0  0  0  0  0  0  0  0  0  0  0  0
    4.4418   -0.5981    0.0000 N   0  0  0  0  0  0  0  0  0  0  0  0
    4.9939    0.0150    0.0000 C   0  0  0  0  0  0  0  0  0  0  0  0
    5.8008   -0.1566    0.0000 C   0  0  0  0  0  0  0  0  0  0  0  0
    6.0558   -0.9412    0.0000 C   0  0  0  0  0  0  0  0  0  0  0  0
    5.5037   -1.5543    0.0000 C   0  0  0  0  0  0  0  0  0  0  0  0
    4.6968   -1.3828    0.0000 C   0  0  0  0  0  0  0  0  0  0  0  0
    3.0828   -1.0397    0.0000 C   0  0  0  0  0  0  0  0  0  0  0  0
    2.2759   -0.8682    0.0000 C   0  0  0  0  0  0  0  0  0  0  0  0
   -0.4000    0.4310    0.0000 C   0  0  0  0  0  0  0  0  0  0  0  0
   -1.2070    0.6026    0.0000 C   0  0  0  0  0  0  0  0  0  0  0  0
   -3.6459    0.9456    0.0000 C   0  0  0  0  0  0  0  0  0  0  0  0
   -4.1979    1.5587    0.0000 C   0  0  0  0  0  0  0  0  0  0  0  0
   -5.0049    1.3872    0.0000 C   0  0  0  0  0  0  0  0  0  0  0  0
   -5.2599    0.6026    0.0000 C   0  0  0  0  0  0  0  0  0  0  0  0
   -4.7078   -0.0105    0.0000 C   0  0  0  0  0  0  0  0  0  0  0  0
   -4.9628   -0.7952    0.0000 O   0  0  0  0  0  0  0  0  0  0  0  0
   -3.9009    0.1610    0.0000 N   0  0  0  0  0  0  0  0  0  0  0  0
   -3.2334   -0.3239    0.0000 C   0  0  0  0  0  0  0  0  0  0  0  0
   -6.0668    0.4310    0.0000 C   0  0  0  0  0  0  0  0  0  0  0  0
   -6.6189    1.0441    0.0000 O   0  0  0  0  0  0  0  0  0  0  0  0
   -6.3639    1.8287    0.0000 C   0  0  0  0  0  0  0  0  0  0  0  0
   -6.9160    2.4418    0.0000 O   0  0  0  0  0  0  0  0  0  0  0  0
   -5.5570    2.0003    0.0000 C   0  0  0  0  0  0  0  0  0  0  0  0
   -4.9635    2.5734    0.0000 O   0  0  0  0  0  0  0  0  0  0  0  0
   -5.7002    2.8127    0.0000 C   0  0  0  0  0  0  0  0  0  0  0  0
   -6.4755    3.0949    0.0000 C   0  0  0  0  0  0  0  0  0  0  0  0
    3.8898   -1.2112    0.0000 H   0  0  0  0  0  0  0  0  0  0  0  0
   -0.8686   -1.7737    0.0000 H   0  0  0  0  0  0  0  0  0  0  0  0
    0.1099   -1.1382    0.0000 H   0  0  0  0  0  0  0  0  0  0  0  0
   -0.5256   -0.1597    0.0000 H   0  0  0  0  0  0  0  0  0  0  0  0
   -6.6468   -0.1557    0.0000 H   0  0  0  0  0  0  0  0  0  0  0  0
   -5.9425   -0.3845    0.0000 H   0  0  0  0  0  0  0  0  0  0  0  0
   -6.4647    3.9198    0.0000 H   0  0  0  0  0  0  0  0  0  0  0  0
   -7.0902    3.6452    0.0000 H   0  0  0  0  0  0  0  0  0  0  0  0
   -7.2942    2.9932    0.0000 H   0  0  0  0  0  0  0  0  0  0  0  0
    2.6456   -1.7393    0.0000 H   0  0  0  0  0  0  0  0  0  0  0  0
    3.1976   -1.8567    0.0000 H   0  0  0  0  0  0  0  0  0  0  0  0
    0.4491    2.4418    0.0000 H   0  0  0  0  0  0  0  0  0  0  0  0
    1.4509   -0.8674    0.0000 H   0  0  0  0  0  0  0  0  0  0  0  0
    1.6537   -1.4100    0.0000 H   0  0  0  0  0  0  0  0  0  0  0  0
   -4.1596    2.7590    0.0000 H   0  0  0  0  0  0  0  0  0  0  0  0
   -2.2725   -1.0953    0.0000 H   0  0  0  0  0  0  0  0  0  0  0  0
   -1.7222   -1.5908    0.0000 H   0  0  0  0  0  0  0  0  0  0  0  0
    5.1182    0.8305    0.0000 H   0  0  0  0  0  0  0  0  0  0  0  0
    4.4139    0.6017    0.0000 H   0  0  0  0  0  0  0  0  0  0  0  0
    4.2596   -2.0824    0.0000 H   0  0  0  0  0  0  0  0  0  0  0  0
    4.8116   -2.1997    0.0000 H   0  0  0  0  0  0  0  0  0  0  0  0
   -3.9430    2.3433    0.0000 H   0  0  0  0  0  0  0  0  0  0  0  0
   -1.1648    2.7849    0.0000 H   0  0  0  0  0  0  0  0  0  0  0  0
    2.6973    1.3451    0.0000 H   0  0  0  0  0  0  0  0  0  0  0  0
    1.9930    1.1163    0.0000 H   0  0  0  0  0  0  0  0  0  0  0  0
    5.3794   -2.3699    0.0000 H   0  0  0  0  0  0  0  0  0  0  0  0
    6.0837   -2.1410    0.0000 H   0  0  0  0  0  0  0  0  0  0  0  0
    0.3351    0.0565    0.0000 H   0  0  0  0  0  0  0  0  0  0  0  0
   -3.6207   -1.0524    0.0000 H   0  0  0  0  0  0  0  0  0  0  0  0
   -2.8461   -1.0524    0.0000 H   0  0  0  0  0  0  0  0  0  0  0  0
   -5.0807    3.3576    0.0000 H   0  0  0  0  0  0  0  0  0  0  0  0
   -5.8529    3.6235    0.0000 H   0  0  0  0  0  0  0  0  0  0  0  0
    6.6999   -1.4566    0.0000 H   0  0  0  0  0  0  0  0  0  0  0  0
    6.8539   -0.7323    0.0000 H   0  0  0  0  0  0  0  0  0  0  0  0
    6.5693    0.1436    0.0000 H   0  0  0  0  0  0  0  0  0  0  0  0
    6.0190    0.6391    0.0000 H   0  0  0  0  0  0  0  0  0  0  0  0
    4.1484    0.6581    0.0000 H   0  0  0  0  0  0  0  0  0  0  0  0
    3.5981    1.1536    0.0000 H   0  0  0  0  0  0  0  0  0  0  0  0
  1  2  1  0  0  0  0
  2  3  1  0  0  0  0
  3  4  4  0  0  0  0
  3 27  4  0  0  0  0
  4  5  4  0  0  0  0
  4 35  1  0  0  0  0
  5  6  4  0  0  0  0
  5 28  1  0  0  0  0
  6  7  4  0  0  0  0
  7  8  4  0  0  0  0
  7 27  4  0  0  0  0
  8  9  4  0  0  0  0
  9 10  4  0  0  0  0
 10 11  1  0  0  0  0
 10 26  4  0  0  0  0
 11 12  1  0  0  0  0
 12 13  2  0  0  0  0
 12 14  1  0  0  0  0
 14 15  1  0  0  0  0
 14 25  1  0  0  0  0
 15 16  1  0  0  0  0
 16 17  1  0  0  0  0
 17 18  1  0  0  0  0
 17 24  1  0  0  0  0
 18 19  1  0  0  0  0
 18 23  1  0  0  0  0
 19 20  1  0  0  0  0
 20 21  1  0  0  0  0
 21 22  1  0  0  0  0
 22 23  1  0  0  0  0
 24 25  1  0  0  0  0
 26 27  4  0  0  0  0
 28 29  2  0  0  0  0
 28 34  1  0  0  0  0
 29 30  1  0  0  0  0
 30 31  2  0  0  0  0
 30 40  1  0  0  0  0
 31 32  1  0  0  0  0
 31 36  1  0  0  0  0
 32 33  2  0  0  0  0
 32 34  1  0  0  0  0
 34 35  1  0  0  0  0
 36 37  1  0  0  0  0
 37 38  1  0  0  0  0
 38 39  2  0  0  0  0
 38 40  1  0  0  0  0
 40 41  1  0  0  0  0
 40 42  1  0  0  0  0
 42 43  1  0  0  0  0
 17 44  1  0  0  0  0
  1 45  1  0  0  0  0
  1 46  1  0  0  0  0
  1 47  1  0  0  0  0
 36 48  1  0  0  0  0
 36 49  1  0  0  0  0
 43 50  1  0  0  0  0
 43 51  1  0  0  0  0
 43 52  1  0  0  0  0
 24 53  1  0  0  0  0
 24 54  1  0  0  0  0
  9 55  1  0  0  0  0
 25 56  1  0  0  0  0
 25 57  1  0  0  0  0
 41 58  1  0  0  0  0
  2 59  1  0  0  0  0
  2 60  1  0  0  0  0
 19 61  1  0  0  0  0
 19 62  1  0  0  0  0
 23 63  1  0  0  0  0
 23 64  1  0  0  0  0
 29 65  1  0  0  0  0
  8 66  1  0  0  0  0
 15 67  1  0  0  0  0
 15 68  1  0  0  0  0
 22 69  1  0  0  0  0
 22 70  1  0  0  0  0
 26 71  1  0  0  0  0
 35 72  1  0  0  0  0
 35 73  1  0  0  0  0
 42 74  1  0  0  0  0
 42 75  1  0  0  0  0
 21 76  1  0  0  0  0
 21 77  1  0  0  0  0
 20 78  1  0  0  0  0
 20 79  1  0  0  0  0
 16 80  1  0  0  0  0
 16 81  1  0  0  0  0
M  END
> <Molecule ChEMBL ID>
CHEMBL481

> <Class(50)>
1

> <Class(80)>
1

>  <salt>
false

>  <StandardizerResult>
Tautomerize (ID: Tautomerize)
Transform (ID: Transform NO2 (1))
Aromatize (ID: Aromatize)
Wedge Clean (ID: Wedge Clean)
Clean 2D (ID: Clean2D)

$$$$
CHEMBL538943
  Mrv2010 08032110442D          

111119  0  0  1  0            999 V2000
    3.3500    0.5761    0.0000 C   0  0  0  0  0  0  0  0  0  0  0  0
    2.8242   -0.0596    0.0000 C   0  0  0  0  0  0  0  0  0  0  0  0
    2.0107    0.0778    0.0000 C   0  0  0  0  0  0  0  0  0  0  0  0
    1.4295   -0.5514    0.0000 C   0  0  0  0  0  0  0  0  0  0  0  0
    0.5543   -0.4363    0.0000 C   0  0  0  0  0  0  0  0  0  0  0  0
    0.6284    0.3115    0.0000 C   0  0  0  0  0  0  0  0  0  0  0  0
    0.8042    1.0420    0.0000 N   0  0  0  0  0  0  0  0  0  0  0  0
    1.6685    0.8631    0.0000 C   0  0  0  0  0  0  0  0  0  0  0  0
    0.0433    1.4792    0.0000 C   0  0  0  0  0  0  0  0  0  0  0  0
   -0.8049    1.3314    0.0000 C   0  0  0  0  0  0  0  0  0  0  0  0
   -1.2547    0.6398    0.0000 C   0  0  0  0  0  0  0  0  0  0  0  0
   -2.0514    0.8539    0.0000 N   0  0  0  0  0  0  0  0  0  0  0  0
   -2.0940    1.6778    0.0000 C   0  0  0  0  0  0  0  0  0  0  0  0
   -2.7347    2.1975    0.0000 C   0  0  0  0  0  0  0  0  0  0  0  0
   -2.6051    3.0122    0.0000 C   0  0  0  0  0  0  0  0  0  0  0  0
   -1.8346    3.3073    0.0000 C   0  0  0  0  0  0  0  0  0  0  0  0
   -1.1939    2.7876    0.0000 C   0  0  0  0  0  0  0  0  0  0  0  0
   -1.3236    1.9729    0.0000 C   0  0  0  0  0  0  0  0  0  0  0  0
   -1.0604   -0.1808    0.0000 C   0  0  0  0  0  0  0  0  0  0  0  0
   -1.8853   -0.1692    0.0000 C   0  0  0  0  0  0  0  0  0  0  0  0
   -2.3079   -0.8777    0.0000 O   0  0  0  0  0  0  0  0  0  0  0  0
   -2.2877    0.5511    0.0000 O   0  0  0  0  0  0  0  0  0  0  0  0
   -3.1126    0.5627    0.0000 C   0  0  0  0  0  0  0  0  0  0  0  0
   -1.2731   -0.9779    0.0000 C   0  0  0  0  0  0  0  0  0  0  0  0
   -2.0698   -1.1923    0.0000 C   0  0  0  0  0  0  0  0  0  0  0  0
   -2.2824   -1.9894    0.0000 C   0  0  0  0  0  0  0  0  0  0  0  0
   -1.6985   -2.5722    0.0000 C   0  0  0  0  0  0  0  0  0  0  0  0
   -0.9018   -2.3578    0.0000 C   0  0  0  0  0  0  0  0  0  0  0  0
   -0.6891   -1.5607    0.0000 C   0  0  0  0  0  0  0  0  0  0  0  0
    0.1075   -1.3463    0.0000 O   0  0  0  0  0  0  0  0  0  0  0  0
    0.6915   -1.9291    0.0000 C   0  0  0  0  0  0  0  0  0  0  0  0
   -2.0722   -3.3077    0.0000 N   0  0  0  0  0  0  0  0  0  0  0  0
   -1.6969   -4.0423    0.0000 C   0  0  0  0  0  0  0  0  0  0  0  0
   -2.8872   -3.1795    0.0000 C   0  0  0  0  0  0  0  0  0  0  0  0
   -3.5278   -3.6993    0.0000 C   0  0  0  0  0  0  0  0  0  0  0  0
   -2.9046   -4.2399    0.0000 O   0  0  0  0  0  0  0  0  0  0  0  0
   -3.9520   -4.4069    0.0000 C   0  0  0  0  0  0  0  0  0  0  0  0
   -4.7769   -4.3934    0.0000 O   0  0  0  0  0  0  0  0  0  0  0  0
   -3.5512   -5.1281    0.0000 O   0  0  0  0  0  0  0  0  0  0  0  0
   -3.9754   -5.8357    0.0000 C   0  0  0  0  0  0  0  0  0  0  0  0
   -4.2983   -3.4045    0.0000 C   0  0  1  0  0  0  0  0  0  0  0  0
   -4.9389   -3.9243    0.0000 O   0  0  0  0  0  0  0  0  0  0  0  0
   -5.7094   -3.6295    0.0000 C   0  0  0  0  0  0  0  0  0  0  0  0
   -6.3500   -4.1494    0.0000 O   0  0  0  0  0  0  0  0  0  0  0  0
   -5.6967   -3.1344    0.0000 C   0  0  0  0  0  0  0  0  0  0  0  0
   -4.4282   -2.5898    0.0000 C   0  0  0  0  0  0  0  0  0  0  0  0
   -5.0688   -3.1096    0.0000 C   0  0  0  0  0  0  0  0  0  0  0  0
   -5.8394   -2.8148    0.0000 C   0  0  0  0  0  0  0  0  0  0  0  0
   -5.1988   -2.2949    0.0000 C   0  0  0  0  0  0  0  0  0  0  0  0
   -5.3287   -1.4802    0.0000 C   0  0  0  0  0  0  0  0  0  0  0  0
   -4.6881   -0.9604    0.0000 C   0  0  0  0  0  0  0  0  0  0  0  0
   -3.9176   -1.2552    0.0000 N   0  0  0  0  0  0  0  0  0  0  0  0
   -2.9487   -1.0316    0.0000 C   0  0  0  0  0  0  0  0  0  0  0  0
   -2.4986   -1.7231    0.0000 C   0  0  0  0  0  0  0  0  0  0  0  0
   -3.0171   -2.3647    0.0000 C   0  0  0  0  0  0  0  0  0  0  0  0
   -3.7876   -2.0699    0.0000 C   0  0  1  0  0  0  0  0  0  0  0  0
   -0.3079   -0.5992    0.0000 C   0  0  0  0  0  0  0  0  0  0  0  0
   -3.6577   -2.8846    0.0000 H   0  0  0  0  0  0  0  0  0  0  0  0
   -3.7167    1.1246    0.0000 H   0  0  0  0  0  0  0  0  0  0  0  0
   -3.8189    0.1364    0.0000 H   0  0  0  0  0  0  0  0  0  0  0  0
   -2.8970   -0.2336    0.0000 H   0  0  0  0  0  0  0  0  0  0  0  0
   -0.3178   -2.9406    0.0000 H   0  0  0  0  0  0  0  0  0  0  0  0
   -0.1851    0.4489    0.0000 H   0  0  0  0  0  0  0  0  0  0  0  0
    1.4419    0.1740    0.0000 H   0  0  0  0  0  0  0  0  0  0  0  0
   -5.8897   -0.8753    0.0000 H   0  0  0  0  0  0  0  0  0  0  0  0
    2.4172    1.2097    0.0000 H   0  0  0  0  0  0  0  0  0  0  0  0
    1.8540    1.6670    0.0000 H   0  0  0  0  0  0  0  0  0  0  0  0
    1.7102   -1.3272    0.0000 H   0  0  0  0  0  0  0  0  0  0  0  0
    0.5774   -1.2610    0.0000 H   0  0  0  0  0  0  0  0  0  0  0  0
   -1.7050    4.1221    0.0000 H   0  0  0  0  0  0  0  0  0  0  0  0
    0.5096    2.1598    0.0000 H   0  0  0  0  0  0  0  0  0  0  0  0
   -0.1621    2.2782    0.0000 H   0  0  0  0  0  0  0  0  0  0  0  0
   -3.2250   -2.1142    0.0000 H   0  0  0  0  0  0  0  0  0  0  0  0
   -2.6443   -0.9110    0.0000 H   0  0  0  0  0  0  0  0  0  0  0  0
    3.9857    0.0503    0.0000 H   0  0  0  0  0  0  0  0  0  0  0  0
    3.8758    1.2119    0.0000 H   0  0  0  0  0  0  0  0  0  0  0  0
    2.7142    1.1019    0.0000 H   0  0  0  0  0  0  0  0  0  0  0  0
   -6.4955   -2.9285    0.0000 H   0  0  0  0  0  0  0  0  0  0  0  0
   -6.3552   -3.6313    0.0000 H   0  0  0  0  0  0  0  0  0  0  0  0
   -5.1093   -3.7138    0.0000 H   0  0  0  0  0  0  0  0  0  0  0  0
   -0.4235    3.0827    0.0000 H   0  0  0  0  0  0  0  0  0  0  0  0
   -1.8024   -0.4118    0.0000 H   0  0  0  0  0  0  0  0  0  0  0  0
   -3.5052    1.9024    0.0000 H   0  0  0  0  0  0  0  0  0  0  0  0
   -4.4385   -0.1740    0.0000 H   0  0  0  0  0  0  0  0  0  0  0  0
   -5.1698   -0.2906    0.0000 H   0  0  0  0  0  0  0  0  0  0  0  0
   -3.2458    3.5319    0.0000 H   0  0  0  0  0  0  0  0  0  0  0  0
   -0.8912   -1.1825    0.0000 H   0  0  0  0  0  0  0  0  0  0  0  0
   -0.1762    0.2153    0.0000 H   0  0  0  0  0  0  0  0  0  0  0  0
   -4.1684   -4.2192    0.0000 H   0  0  0  0  0  0  0  0  0  0  0  0
   -4.6830   -5.4115    0.0000 H   0  0  0  0  0  0  0  0  0  0  0  0
   -4.3996   -6.5433    0.0000 H   0  0  0  0  0  0  0  0  0  0  0  0
   -3.2678   -6.2598    0.0000 H   0  0  0  0  0  0  0  0  0  0  0  0
   -2.8382    1.1020    0.0000 H   0  0  0  0  0  0  0  0  0  0  0  0
   -5.8106   -1.9903    0.0000 H   0  0  0  0  0  0  0  0  0  0  0  0
   -6.2759   -2.1147    0.0000 H   0  0  0  0  0  0  0  0  0  0  0  0
   -6.5924   -2.4778    0.0000 H   0  0  0  0  0  0  0  0  0  0  0  0
   -5.5887   -2.4690    0.0000 H   0  0  0  0  0  0  0  0  0  0  0  0
   -5.6602   -3.6849    0.0000 H   0  0  0  0  0  0  0  0  0  0  0  0
   -3.3266   -4.9488    0.0000 H   0  0  0  0  0  0  0  0  0  0  0  0
   -3.5773   -0.4974    0.0000 H   0  0  0  0  0  0  0  0  0  0  0  0
   -3.2574   -1.7967    0.0000 H   0  0  0  0  0  0  0  0  0  0  0  0
   -2.4316   -4.4177    0.0000 H   0  0  0  0  0  0  0  0  0  0  0  0
   -1.3216   -4.7770    0.0000 H   0  0  0  0  0  0  0  0  0  0  0  0
   -0.9622   -3.6670    0.0000 H   0  0  0  0  0  0  0  0  0  0  0  0
   -4.5582   -1.7751    0.0000 H   0  0  0  0  0  0  0  0  0  0  0  0
    0.0259   -2.4165    0.0000 H   0  0  0  0  0  0  0  0  0  0  0  0
    1.0709   -2.6617    0.0000 H   0  0  0  0  0  0  0  0  0  0  0  0
    1.4737   -1.6668    0.0000 H   0  0  0  0  0  0  0  0  0  0  0  0
    2.7343   -0.8797    0.0000 H   0  0  0  0  0  0  0  0  0  0  0  0
    3.4283   -0.6215    0.0000 H   0  0  0  0  0  0  0  0  0  0  0  0
   -3.4151   -1.3338    0.0000 H   0  0  0  0  0  0  0  0  0  0  0  0
  1  2  1  0  0  0  0
  2  3  1  0  0  0  0
  3  4  2  0  0  0  0
  3  8  1  0  0  0  0
  4  5  1  0  0  0  0
  5  6  1  0  0  0  0
  5 57  1  0  0  0  0
  6  7  1  0  0  0  0
  7  8  1  0  0  0  0
  7  9  1  0  0  0  0
  9 10  1  0  0  0  0
 10 11  4  0  0  0  0
 10 18  4  0  0  0  0
 11 12  4  0  0  0  0
 11 19  1  0  0  0  0
 12 13  4  0  0  0  0
 13 14  4  0  0  0  0
 13 18  4  0  0  0  0
 14 15  4  0  0  0  0
 15 16  4  0  0  0  0
 16 17  4  0  0  0  0
 17 18  4  0  0  0  0
 19 20  1  0  0  0  0
 19 24  1  0  0  0  0
 19 57  1  0  0  0  0
 20 21  2  0  0  0  0
 20 22  1  0  0  0  0
 22 23  1  0  0  0  0
 24 25  4  0  0  0  0
 24 29  4  0  0  0  0
 25 26  4  0  0  0  0
 26 27  4  0  0  0  0
 26 55  1  0  0  0  0
 27 28  4  0  0  0  0
 27 32  1  0  0  0  0
 28 29  4  0  0  0  0
 29 30  1  0  0  0  0
 30 31  1  0  0  0  0
 32 33  1  0  0  0  0
 32 34  1  0  0  0  0
 34 35  1  0  0  0  0
 34 55  1  0  0  0  0
 35 36  1  0  0  0  0
 35 37  1  0  0  0  0
 41 35  1  0  0  0  0
 37 38  2  0  0  0  0
 37 39  1  0  0  0  0
 39 40  1  0  0  0  0
 41 42  1  0  0  0  0
 41 46  1  0  0  0  0
 42 43  1  0  0  0  0
 43 44  2  0  0  0  0
 43 45  1  0  0  0  0
 46 47  1  0  0  0  0
 46 49  1  0  0  0  0
 56 46  1  0  0  0  0
 47 48  1  0  0  0  0
 49 50  2  0  0  0  0
 50 51  1  0  0  0  0
 51 52  1  0  0  0  0
 52 53  1  0  0  0  0
 56 52  1  0  0  0  0
 53 54  1  0  0  0  0
 54 55  1  0  0  0  0
 56 55  1  0  0  0  0
 34 58  1  0  0  0  0
 23 59  1  0  0  0  0
 23 60  1  0  0  0  0
 23 61  1  0  0  0  0
 28 62  1  0  0  0  0
  6 63  1  0  0  0  0
  6 64  1  0  0  0  0
 50 65  1  0  0  0  0
  8 66  1  0  0  0  0
  8 67  1  0  0  0  0
  4 68  1  0  0  0  0
  5 69  1  0  0  0  0
 16 70  1  0  0  0  0
  9 71  1  0  0  0  0
  9 72  1  0  0  0  0
 54 73  1  0  0  0  0
 54 74  1  0  0  0  0
  1 75  1  0  0  0  0
  1 76  1  0  0  0  0
  1 77  1  0  0  0  0
 45 78  1  0  0  0  0
 45 79  1  0  0  0  0
 45 80  1  0  0  0  0
 17 81  1  0  0  0  0
 25 82  1  0  0  0  0
 14 83  1  0  0  0  0
 51 84  1  0  0  0  0
 51 85  1  0  0  0  0
 15 86  1  0  0  0  0
 57 87  1  0  0  0  0
 57 88  1  0  0  0  0
 41 89  1  6  0  0  0
 40 90  1  0  0  0  0
 40 91  1  0  0  0  0
 40 92  1  0  0  0  0
 12 93  1  0  0  0  0
 48 94  1  0  0  0  0
 48 95  1  0  0  0  0
 48 96  1  0  0  0  0
 47 97  1  0  0  0  0
 47 98  1  0  0  0  0
 36 99  1  0  0  0  0
 53100  1  0  0  0  0
 53101  1  0  0  0  0
 33102  1  0  0  0  0
 33103  1  0  0  0  0
 33104  1  0  0  0  0
 49105  1  0  0  0  0
 31106  1  0  0  0  0
 31107  1  0  0  0  0
 31108  1  0  0  0  0
  2109  1  0  0  0  0
  2110  1  0  0  0  0
 56111  1  6  0  0  0
M  END
> <Molecule ChEMBL ID>
CHEMBL538943

> <Class(50)>
1

> <Class(80)>
1

>  <salt>
true

>  <StandardizerResult>
Tautomerize (ID: Tautomerize)
Transform (ID: Transform NO2 (1))
Aromatize (ID: Aromatize)
Wedge Clean (ID: Wedge Clean)
Clean 2D (ID: Clean2D)

$$$$
CHEMBL3414574
  Mrv2010 08032110442D          

 55 57  0  0  0  0            999 V2000
   -4.1863   -4.3835    0.0000 C   0  0  0  0  0  0  0  0  0  0  0  0
   -3.9314   -3.5989    0.0000 C   0  0  0  0  0  0  0  0  0  0  0  0
   -3.1244   -3.4273    0.0000 C   0  0  0  0  0  0  0  0  0  0  0  0
   -2.5724   -4.0404    0.0000 C   0  0  0  0  0  0  0  0  0  0  0  0
   -1.7654   -3.8689    0.0000 C   0  0  0  0  0  0  0  0  0  0  0  0
   -2.8695   -2.6427    0.0000 N   0  0  0  0  0  0  0  0  0  0  0  0
   -3.3544   -1.9753    0.0000 C   0  0  0  0  0  0  0  0  0  0  0  0
   -2.8695   -1.3078    0.0000 C   0  0  0  0  0  0  0  0  0  0  0  0
   -2.0848   -1.5628    0.0000 C   0  0  0  0  0  0  0  0  0  0  0  0
   -1.3704   -1.1503    0.0000 C   0  0  0  0  0  0  0  0  0  0  0  0
   -1.3704   -0.3253    0.0000 C   0  0  0  0  0  0  0  0  0  0  0  0
   -2.0848    0.0872    0.0000 O   0  0  0  0  0  0  0  0  0  0  0  0
   -0.6559    0.0872    0.0000 N   0  0  0  0  0  0  0  0  0  0  0  0
   -0.6559    0.9122    0.0000 C   0  0  0  0  0  0  0  0  0  0  0  0
    0.0586    1.3247    0.0000 C   0  0  0  0  0  0  0  0  0  0  0  0
    0.0586    2.1497    0.0000 C   0  0  0  0  0  0  0  0  0  0  0  0
   -0.6559    2.5622    0.0000 C   0  0  0  0  0  0  0  0  0  0  0  0
    0.7730    2.5622    0.0000 C   0  0  0  0  0  0  0  0  0  0  0  0
    1.4875    2.1497    0.0000 C   0  0  0  0  0  0  0  0  0  0  0  0
    2.2020    2.5622    0.0000 C   0  0  0  0  0  0  0  0  0  0  0  0
    1.4875    1.3247    0.0000 N   0  0  0  0  0  0  0  0  0  0  0  0
    0.7730    0.9122    0.0000 C   0  0  0  0  0  0  0  0  0  0  0  0
    0.7730    0.0872    0.0000 O   0  0  0  0  0  0  0  0  0  0  0  0
   -0.6559   -1.5628    0.0000 C   0  0  0  0  0  0  0  0  0  0  0  0
   -0.6559   -2.3878    0.0000 C   0  0  0  0  0  0  0  0  0  0  0  0
    0.0586   -2.8003    0.0000 C   0  0  0  0  0  0  0  0  0  0  0  0
    0.7730   -3.2128    0.0000 N   0  0  0  0  0  0  0  0  0  0  0  0
   -1.3704   -2.8003    0.0000 C   0  0  0  0  0  0  0  0  0  0  0  0
   -2.0848   -2.3878    0.0000 C   0  0  0  0  0  0  0  0  0  0  0  0
   -1.1044   -4.3625    0.0000 H   0  0  0  0  0  0  0  0  0  0  0  0
   -1.1288   -3.3441    0.0000 H   0  0  0  0  0  0  0  0  0  0  0  0
   -2.1238   -3.1258    0.0000 H   0  0  0  0  0  0  0  0  0  0  0  0
   -4.1495   -2.8032    0.0000 H   0  0  0  0  0  0  0  0  0  0  0  0
   -4.6998   -3.2987    0.0000 H   0  0  0  0  0  0  0  0  0  0  0  0
   -4.9709   -4.1286    0.0000 H   0  0  0  0  0  0  0  0  0  0  0  0
   -4.4412   -5.1681    0.0000 H   0  0  0  0  0  0  0  0  0  0  0  0
   -3.4017   -4.6384    0.0000 H   0  0  0  0  0  0  0  0  0  0  0  0
   -2.6872   -4.8574    0.0000 H   0  0  0  0  0  0  0  0  0  0  0  0
   -2.1352   -4.7401    0.0000 H   0  0  0  0  0  0  0  0  0  0  0  0
   -3.1244   -0.5232    0.0000 H   0  0  0  0  0  0  0  0  0  0  0  0
   -0.2434    3.2767    0.0000 H   0  0  0  0  0  0  0  0  0  0  0  0
   -1.3704    2.9747    0.0000 H   0  0  0  0  0  0  0  0  0  0  0  0
   -1.0684    1.8477    0.0000 H   0  0  0  0  0  0  0  0  0  0  0  0
   -1.1092    1.6015    0.0000 H   0  0  0  0  0  0  0  0  0  0  0  0
   -1.4795    0.9602    0.0000 H   0  0  0  0  0  0  0  0  0  0  0  0
    0.7730    3.3872    0.0000 H   0  0  0  0  0  0  0  0  0  0  0  0
   -1.3704   -1.9753    0.0000 H   0  0  0  0  0  0  0  0  0  0  0  0
   -4.1794   -1.9753    0.0000 H   0  0  0  0  0  0  0  0  0  0  0  0
    0.0586   -0.3253    0.0000 H   0  0  0  0  0  0  0  0  0  0  0  0
   -3.3793   -4.2120    0.0000 H   0  0  0  0  0  0  0  0  0  0  0  0
    2.2020    0.9122    0.0000 H   0  0  0  0  0  0  0  0  0  0  0  0
    2.6145    1.8477    0.0000 H   0  0  0  0  0  0  0  0  0  0  0  0
    2.9165    2.9747    0.0000 H   0  0  0  0  0  0  0  0  0  0  0  0
    1.7895    3.2767    0.0000 H   0  0  0  0  0  0  0  0  0  0  0  0
    0.0586   -1.1503    0.0000 H   0  0  0  0  0  0  0  0  0  0  0  0
  1  2  1  0  0  0  0
  2  3  1  0  0  0  0
  3  4  1  0  0  0  0
  3  6  1  0  0  0  0
  4  5  1  0  0  0  0
  6  7  4  0  0  0  0
  6 29  4  0  0  0  0
  7  8  4  0  0  0  0
  8  9  4  0  0  0  0
  9 10  4  0  0  0  0
  9 29  4  0  0  0  0
 10 11  1  0  0  0  0
 10 24  4  0  0  0  0
 11 12  2  0  0  0  0
 11 13  1  0  0  0  0
 13 14  1  0  0  0  0
 14 15  1  0  0  0  0
 15 16  2  0  0  0  0
 15 22  1  0  0  0  0
 16 17  1  0  0  0  0
 16 18  1  0  0  0  0
 18 19  2  0  0  0  0
 19 20  1  0  0  0  0
 19 21  1  0  0  0  0
 21 22  1  0  0  0  0
 22 23  2  0  0  0  0
 24 25  4  0  0  0  0
 25 26  1  0  0  0  0
 25 28  4  0  0  0  0
 26 27  3  0  0  0  0
 28 29  4  0  0  0  0
  5 30  1  0  0  0  0
  5 31  1  0  0  0  0
  5 32  1  0  0  0  0
  2 33  1  0  0  0  0
  2 34  1  0  0  0  0
  1 35  1  0  0  0  0
  1 36  1  0  0  0  0
  1 37  1  0  0  0  0
  4 38  1  0  0  0  0
  4 39  1  0  0  0  0
  8 40  1  0  0  0  0
 17 41  1  0  0  0  0
 17 42  1  0  0  0  0
 17 43  1  0  0  0  0
 14 44  1  0  0  0  0
 14 45  1  0  0  0  0
 18 46  1  0  0  0  0
 28 47  1  0  0  0  0
  7 48  1  0  0  0  0
 13 49  1  0  0  0  0
  3 50  1  0  0  0  0
 21 51  1  0  0  0  0
 20 52  1  0  0  0  0
 20 53  1  0  0  0  0
 20 54  1  0  0  0  0
 24 55  1  0  0  0  0
M  END
> <Molecule ChEMBL ID>
CHEMBL3414574

> <Class(50)>
1

> <Class(80)>
1

>  <salt>
false

>  <StandardizerResult>
Tautomerize (ID: Tautomerize)
Neutralize (ID: Neutralize)
Aromatize (ID: Aromatize)
Wedge Clean (ID: Wedge Clean)
Clean 2D (ID: Clean2D)

$$$$
CHEMBL406050
  Mrv2010 08032110442D          

 23 23  0  0  1  0            999 V2000
   -0.1929   -0.1105    0.0000 C   0  0  0  0  0  0  0  0  0  0  0  0
    0.5215   -0.5230    0.0000 C   0  0  0  0  0  0  0  0  0  0  0  0
    1.2360   -0.1105    0.0000 C   0  0  1  0  0  0  0  0  0  0  0  0
    1.2360    0.7145    0.0000 C   0  0  0  0  0  0  0  0  0  0  0  0
    1.9505   -0.5230    0.0000 S   0  0  0  0  0  0  0  0  0  0  0  0
    2.6650   -0.1105    0.0000 S   0  0  0  0  0  0  0  0  0  0  0  0
    3.3794   -0.5230    0.0000 C   0  0  0  0  0  0  0  0  0  0  0  0
    4.1331   -0.1874    0.0000 N   0  0  0  0  0  0  0  0  0  0  0  0
    4.6851   -0.8005    0.0000 C   0  0  0  0  0  0  0  0  0  0  0  0
    4.2726   -1.5150    0.0000 C   0  0  0  0  0  0  0  0  0  0  0  0
    3.4657   -1.3434    0.0000 N   0  0  0  0  0  0  0  0  0  0  0  0
    2.8526   -1.8955    0.0000 H   0  0  0  0  0  0  0  0  0  0  0  0
    4.6082   -2.2686    0.0000 H   0  0  0  0  0  0  0  0  0  0  0  0
    0.1513   -1.2602    0.0000 H   0  0  0  0  0  0  0  0  0  0  0  0
    0.8918   -1.2602    0.0000 H   0  0  0  0  0  0  0  0  0  0  0  0
    5.5056   -0.7143    0.0000 H   0  0  0  0  0  0  0  0  0  0  0  0
    0.5215    0.3020    0.0000 H   0  0  0  0  0  0  0  0  0  0  0  0
    2.0329    0.5010    0.0000 H   0  0  0  0  0  0  0  0  0  0  0  0
    1.6485    1.4290    0.0000 H   0  0  0  0  0  0  0  0  0  0  0  0
    0.6526    1.2979    0.0000 H   0  0  0  0  0  0  0  0  0  0  0  0
    0.2196    0.6040    0.0000 H   0  0  0  0  0  0  0  0  0  0  0  0
   -0.9074    0.3020    0.0000 H   0  0  0  0  0  0  0  0  0  0  0  0
   -0.6054   -0.8249    0.0000 H   0  0  0  0  0  0  0  0  0  0  0  0
  1  2  1  0  0  0  0
  3  2  1  0  0  0  0
  3  4  1  0  0  0  0
  3  5  1  0  0  0  0
  5  6  1  0  0  0  0
  6  7  1  0  0  0  0
  7  8  4  0  0  0  0
  7 11  4  0  0  0  0
  8  9  4  0  0  0  0
  9 10  4  0  0  0  0
 10 11  4  0  0  0  0
 11 12  1  0  0  0  0
 10 13  1  0  0  0  0
  2 14  1  0  0  0  0
  2 15  1  0  0  0  0
  9 16  1  0  0  0  0
  3 17  1  6  0  0  0
  4 18  1  0  0  0  0
  4 19  1  0  0  0  0
  4 20  1  0  0  0  0
  1 21  1  0  0  0  0
  1 22  1  0  0  0  0
  1 23  1  0  0  0  0
M  END
> <Molecule ChEMBL ID>
CHEMBL406050

> <Class(50)>
1

> <Class(80)>
1

>  <salt>
false

>  <StandardizerResult>
Tautomerize (ID: Tautomerize)
Transform (ID: Transform NO2 (1))
Aromatize (ID: Aromatize)
Wedge Clean (ID: Wedge Clean)
Clean 2D (ID: Clean2D)

$$$$
CHEMBL1374426
  Mrv2010 08032110442D          

 22 22  0  0  0  0            999 V2000
   -0.7947   -0.1404    0.0000 C   0  0  0  0  0  0  0  0  0  0  0  0
   -0.0802   -0.5529    0.0000 C   0  0  0  0  0  0  0  0  0  0  0  0
    0.6343   -0.1404    0.0000 C   0  0  0  0  0  0  0  0  0  0  0  0
    0.6343    0.6846    0.0000 O   0  0  0  0  0  0  0  0  0  0  0  0
    1.3487   -0.5529    0.0000 O   0  0  0  0  0  0  0  0  0  0  0  0
    2.0632   -0.1404    0.0000 C   0  0  0  0  0  0  0  0  0  0  0  0
    2.7777   -0.5529    0.0000 N   0  0  0  0  0  0  0  0  0  0  0  0
    3.5313   -0.2173    0.0000 C   0  0  0  0  0  0  0  0  0  0  0  0
    3.7029    0.5897    0.0000 O   0  0  0  0  0  0  0  0  0  0  0  0
    4.0834   -0.8304    0.0000 C   0  0  0  0  0  0  0  0  0  0  0  0
    3.6709   -1.5449    0.0000 C   0  0  0  0  0  0  0  0  0  0  0  0
    2.8639   -1.3733    0.0000 C   0  0  0  0  0  0  0  0  0  0  0  0
    2.2508   -1.9254    0.0000 O   0  0  0  0  0  0  0  0  0  0  0  0
    2.4335    0.5969    0.0000 H   0  0  0  0  0  0  0  0  0  0  0  0
    1.6929    0.5969    0.0000 H   0  0  0  0  0  0  0  0  0  0  0  0
    4.9039   -0.7442    0.0000 H   0  0  0  0  0  0  0  0  0  0  0  0
    4.0064   -2.2985    0.0000 H   0  0  0  0  0  0  0  0  0  0  0  0
   -0.3822    0.5741    0.0000 H   0  0  0  0  0  0  0  0  0  0  0  0
   -1.5092    0.2721    0.0000 H   0  0  0  0  0  0  0  0  0  0  0  0
   -1.2072   -0.8548    0.0000 H   0  0  0  0  0  0  0  0  0  0  0  0
   -0.4505   -1.2901    0.0000 H   0  0  0  0  0  0  0  0  0  0  0  0
    0.2900   -1.2901    0.0000 H   0  0  0  0  0  0  0  0  0  0  0  0
  1  2  1  0  0  0  0
  2  3  1  0  0  0  0
  3  4  2  0  0  0  0
  3  5  1  0  0  0  0
  5  6  1  0  0  0  0
  6  7  1  0  0  0  0
  7  8  1  0  0  0  0
  7 12  1  0  0  0  0
  8  9  2  0  0  0  0
  8 10  1  0  0  0  0
 10 11  2  0  0  0  0
 11 12  1  0  0  0  0
 12 13  2  0  0  0  0
  6 14  1  0  0  0  0
  6 15  1  0  0  0  0
 10 16  1  0  0  0  0
 11 17  1  0  0  0  0
  1 18  1  0  0  0  0
  1 19  1  0  0  0  0
  1 20  1  0  0  0  0
  2 21  1  0  0  0  0
  2 22  1  0  0  0  0
M  END
> <Molecule ChEMBL ID>
CHEMBL1374426

> <Class(50)>
1

> <Class(80)>
1

>  <salt>
false

>  <StandardizerResult>
Tautomerize (ID: Tautomerize)
Neutralize (ID: Neutralize)
Wedge Clean (ID: Wedge Clean)
Clean 2D (ID: Clean2D)

$$$$
CHEMBL1671898
  Mrv2010 08032110442D          

 54 56  0  0  0  0            999 V2000
   -3.4586    0.0712    0.0000 C   0  0  0  0  0  0  0  0  0  0  0  0
   -2.6336    0.0712    0.0000 C   0  0  0  0  0  0  0  0  0  0  0  0
   -2.1487    0.7386    0.0000 C   0  0  0  0  0  0  0  0  0  0  0  0
   -1.3641    0.4837    0.0000 N   0  0  0  0  0  0  0  0  0  0  0  0
   -0.6496    0.8962    0.0000 C   0  0  0  0  0  0  0  0  0  0  0  0
   -0.6496    1.7212    0.0000 N   0  0  0  0  0  0  0  0  0  0  0  0
    0.0649    0.4837    0.0000 C   0  0  0  0  0  0  0  0  0  0  0  0
    0.7793    0.8962    0.0000 Cl  0  0  0  0  0  0  0  0  0  0  0  0
    0.0649   -0.3413    0.0000 C   0  0  0  0  0  0  0  0  0  0  0  0
   -0.6496   -0.7538    0.0000 C   0  0  0  0  0  0  0  0  0  0  0  0
   -0.6496   -1.5788    0.0000 C   0  0  0  0  0  0  0  0  0  0  0  0
    0.0649   -1.9913    0.0000 O   0  0  0  0  0  0  0  0  0  0  0  0
   -1.3641   -1.9913    0.0000 N   0  0  0  0  0  0  0  0  0  0  0  0
   -1.3641   -2.8163    0.0000 C   0  0  0  0  0  0  0  0  0  0  0  0
   -2.0786   -3.2288    0.0000 C   0  0  0  0  0  0  0  0  0  0  0  0
   -2.0786   -4.0538    0.0000 C   0  0  0  0  0  0  0  0  0  0  0  0
   -2.7930   -4.4663    0.0000 C   0  0  0  0  0  0  0  0  0  0  0  0
   -3.5075   -4.0538    0.0000 N   0  0  0  0  0  0  0  0  0  0  0  0
   -4.2220   -4.4663    0.0000 C   0  0  0  0  0  0  0  0  0  0  0  0
   -4.9364   -4.0538    0.0000 C   0  0  0  0  0  0  0  0  0  0  0  0
   -5.6509   -4.4663    0.0000 C   0  0  0  0  0  0  0  0  0  0  0  0
   -4.9364   -3.2288    0.0000 C   0  0  0  0  0  0  0  0  0  0  0  0
   -3.5075   -3.2288    0.0000 C   0  0  0  0  0  0  0  0  0  0  0  0
   -2.7930   -2.8163    0.0000 C   0  0  0  0  0  0  0  0  0  0  0  0
   -1.3641   -0.3413    0.0000 C   0  0  0  0  0  0  0  0  0  0  0  0
   -2.1487   -0.5963    0.0000 N   0  0  0  0  0  0  0  0  0  0  0  0
   -1.6252   -4.7431    0.0000 H   0  0  0  0  0  0  0  0  0  0  0  0
   -1.2550   -4.1018    0.0000 H   0  0  0  0  0  0  0  0  0  0  0  0
   -2.4036    1.5232    0.0000 H   0  0  0  0  0  0  0  0  0  0  0  0
   -4.9364   -4.8788    0.0000 H   0  0  0  0  0  0  0  0  0  0  0  0
   -2.0786   -1.5788    0.0000 H   0  0  0  0  0  0  0  0  0  0  0  0
   -2.0786   -2.4038    0.0000 H   0  0  0  0  0  0  0  0  0  0  0  0
   -3.1633   -5.2036    0.0000 H   0  0  0  0  0  0  0  0  0  0  0  0
   -2.4228   -5.2036    0.0000 H   0  0  0  0  0  0  0  0  0  0  0  0
   -3.7210   -2.4319    0.0000 H   0  0  0  0  0  0  0  0  0  0  0  0
   -2.7930   -3.6413    0.0000 H   0  0  0  0  0  0  0  0  0  0  0  0
   -4.1114   -3.2288    0.0000 H   0  0  0  0  0  0  0  0  0  0  0  0
   -4.9364   -2.4038    0.0000 H   0  0  0  0  0  0  0  0  0  0  0  0
   -5.7614   -3.2288    0.0000 H   0  0  0  0  0  0  0  0  0  0  0  0
   -4.5922   -5.2036    0.0000 H   0  0  0  0  0  0  0  0  0  0  0  0
   -3.8517   -5.2036    0.0000 H   0  0  0  0  0  0  0  0  0  0  0  0
   -2.9363   -2.0039    0.0000 H   0  0  0  0  0  0  0  0  0  0  0  0
   -3.4250   -2.2860    0.0000 H   0  0  0  0  0  0  0  0  0  0  0  0
    0.7793   -0.7538    0.0000 H   0  0  0  0  0  0  0  0  0  0  0  0
   -0.9107   -3.5056    0.0000 H   0  0  0  0  0  0  0  0  0  0  0  0
   -0.5405   -2.8643    0.0000 H   0  0  0  0  0  0  0  0  0  0  0  0
   -5.8644   -3.6694    0.0000 H   0  0  0  0  0  0  0  0  0  0  0  0
   -6.4759   -4.4663    0.0000 H   0  0  0  0  0  0  0  0  0  0  0  0
   -5.8644   -5.2632    0.0000 H   0  0  0  0  0  0  0  0  0  0  0  0
    0.0649    2.1337    0.0000 H   0  0  0  0  0  0  0  0  0  0  0  0
   -1.3641    2.1337    0.0000 H   0  0  0  0  0  0  0  0  0  0  0  0
   -3.4586    0.8962    0.0000 H   0  0  0  0  0  0  0  0  0  0  0  0
   -4.2836    0.0712    0.0000 H   0  0  0  0  0  0  0  0  0  0  0  0
   -3.4586   -0.7538    0.0000 H   0  0  0  0  0  0  0  0  0  0  0  0
  1  2  1  0  0  0  0
  2  3  4  0  0  0  0
  2 26  4  0  0  0  0
  3  4  4  0  0  0  0
  4  5  4  0  0  0  0
  4 25  4  0  0  0  0
  5  6  1  0  0  0  0
  5  7  4  0  0  0  0
  7  8  1  0  0  0  0
  7  9  4  0  0  0  0
  9 10  4  0  0  0  0
 10 11  1  0  0  0  0
 10 25  4  0  0  0  0
 11 12  2  0  0  0  0
 11 13  1  0  0  0  0
 13 14  1  0  0  0  0
 14 15  1  0  0  0  0
 15 16  1  0  0  0  0
 15 24  1  0  0  0  0
 16 17  1  0  0  0  0
 17 18  1  0  0  0  0
 18 19  1  0  0  0  0
 18 23  1  0  0  0  0
 19 20  1  0  0  0  0
 20 21  1  0  0  0  0
 20 22  1  0  0  0  0
 23 24  1  0  0  0  0
 25 26  4  0  0  0  0
 16 27  1  0  0  0  0
 16 28  1  0  0  0  0
  3 29  1  0  0  0  0
 20 30  1  0  0  0  0
 13 31  1  0  0  0  0
 15 32  1  0  0  0  0
 17 33  1  0  0  0  0
 17 34  1  0  0  0  0
 23 35  1  0  0  0  0
 23 36  1  0  0  0  0
 22 37  1  0  0  0  0
 22 38  1  0  0  0  0
 22 39  1  0  0  0  0
 19 40  1  0  0  0  0
 19 41  1  0  0  0  0
 24 42  1  0  0  0  0
 24 43  1  0  0  0  0
  9 44  1  0  0  0  0
 14 45  1  0  0  0  0
 14 46  1  0  0  0  0
 21 47  1  0  0  0  0
 21 48  1  0  0  0  0
 21 49  1  0  0  0  0
  6 50  1  0  0  0  0
  6 51  1  0  0  0  0
  1 52  1  0  0  0  0
  1 53  1  0  0  0  0
  1 54  1  0  0  0  0
M  END
> <Molecule ChEMBL ID>
CHEMBL1671898

> <Class(50)>
1

> <Class(80)>
1

>  <salt>
false

>  <StandardizerResult>
Tautomerize (ID: Tautomerize)
Neutralize (ID: Neutralize)
Aromatize (ID: Aromatize)
Wedge Clean (ID: Wedge Clean)
Clean 2D (ID: Clean2D)

$$$$
CHEMBL60718
  Mrv2010 08032110442D          

 41 42  0  0  1  0            999 V2000
   -1.1117    2.8541    0.0000 C   0  0  0  0  0  0  0  0  0  0  0  0
   -1.1117    2.0291    0.0000 C   0  0  0  0  0  0  0  0  0  0  0  0
   -0.3972    1.6166    0.0000 C   0  0  0  0  0  0  0  0  0  0  0  0
   -0.3972    0.7916    0.0000 C   0  0  0  0  0  0  0  0  0  0  0  0
   -1.1117    0.3791    0.0000 C   0  0  0  0  0  0  0  0  0  0  0  0
   -1.1117   -0.4459    0.0000 S   0  0  0  0  0  0  0  0  0  0  0  0
   -1.9367   -0.4459    0.0000 O   0  0  0  0  0  0  0  0  0  0  0  0
   -0.2867   -0.4459    0.0000 O   0  0  0  0  0  0  0  0  0  0  0  0
   -1.1117   -1.2709    0.0000 N   0  0  0  0  0  0  0  0  0  0  0  0
   -1.8262   -1.6834    0.0000 C   0  0  1  0  0  0  0  0  0  0  0  0
   -1.8262   -2.5084    0.0000 C   0  0  0  0  0  0  0  0  0  0  0  0
   -2.5407   -2.9209    0.0000 C   0  0  0  0  0  0  0  0  0  0  0  0
   -2.5407   -3.7459    0.0000 C   0  0  0  0  0  0  0  0  0  0  0  0
   -3.2551   -4.1584    0.0000 C   0  0  0  0  0  0  0  0  0  0  0  0
   -3.9696   -3.7459    0.0000 C   0  0  0  0  0  0  0  0  0  0  0  0
   -3.9696   -2.9209    0.0000 C   0  0  0  0  0  0  0  0  0  0  0  0
   -3.2551   -2.5084    0.0000 C   0  0  0  0  0  0  0  0  0  0  0  0
   -2.5407   -1.2709    0.0000 C   0  0  0  0  0  0  0  0  0  0  0  0
   -2.5407   -0.4459    0.0000 O   0  0  0  0  0  0  0  0  0  0  0  0
   -3.2551   -1.6834    0.0000 C   0  0  0  0  0  0  0  0  0  0  0  0
   -3.9696   -1.2709    0.0000 Cl  0  0  0  0  0  0  0  0  0  0  0  0
   -1.8262    0.7916    0.0000 C   0  0  0  0  0  0  0  0  0  0  0  0
   -1.8262    1.6166    0.0000 C   0  0  0  0  0  0  0  0  0  0  0  0
   -3.2551   -4.9834    0.0000 H   0  0  0  0  0  0  0  0  0  0  0  0
    0.3172    2.0291    0.0000 H   0  0  0  0  0  0  0  0  0  0  0  0
   -2.5407    0.3791    0.0000 H   0  0  0  0  0  0  0  0  0  0  0  0
   -1.1117   -2.0959    0.0000 H   0  0  0  0  0  0  0  0  0  0  0  0
   -2.5407   -2.0959    0.0000 H   0  0  0  0  0  0  0  0  0  0  0  0
   -1.6829   -3.3209    0.0000 H   0  0  0  0  0  0  0  0  0  0  0  0
   -1.1942   -3.0387    0.0000 H   0  0  0  0  0  0  0  0  0  0  0  0
   -0.2867    2.8541    0.0000 H   0  0  0  0  0  0  0  0  0  0  0  0
   -1.1117    3.6791    0.0000 H   0  0  0  0  0  0  0  0  0  0  0  0
   -1.9367    2.8541    0.0000 H   0  0  0  0  0  0  0  0  0  0  0  0
   -0.3972   -1.6834    0.0000 H   0  0  0  0  0  0  0  0  0  0  0  0
   -2.1511   -4.4731    0.0000 H   0  0  0  0  0  0  0  0  0  0  0  0
   -2.5407    2.0291    0.0000 H   0  0  0  0  0  0  0  0  0  0  0  0
   -3.9696   -2.0959    0.0000 H   0  0  0  0  0  0  0  0  0  0  0  0
   -3.2551   -0.8584    0.0000 H   0  0  0  0  0  0  0  0  0  0  0  0
   -4.6841   -4.1584    0.0000 H   0  0  0  0  0  0  0  0  0  0  0  0
   -4.6841   -2.5084    0.0000 H   0  0  0  0  0  0  0  0  0  0  0  0
    0.3172    0.3791    0.0000 H   0  0  0  0  0  0  0  0  0  0  0  0
  1  2  1  0  0  0  0
  2  3  4  0  0  0  0
  2 23  4  0  0  0  0
  3  4  4  0  0  0  0
  4  5  4  0  0  0  0
  5  6  1  0  0  0  0
  5 22  4  0  0  0  0
  6  7  2  0  0  0  0
  6  8  2  0  0  0  0
  6  9  1  0  0  0  0
 10  9  1  0  0  0  0
 10 11  1  0  0  0  0
 10 18  1  0  0  0  0
 11 12  1  0  0  0  0
 12 13  4  0  0  0  0
 12 17  4  0  0  0  0
 13 14  4  0  0  0  0
 14 15  4  0  0  0  0
 15 16  4  0  0  0  0
 16 17  4  0  0  0  0
 18 19  2  0  0  0  0
 18 20  1  0  0  0  0
 20 21  1  0  0  0  0
 22 23  4  0  0  0  0
 14 24  1  0  0  0  0
  3 25  1  0  0  0  0
 22 26  1  0  0  0  0
 10 27  1  6  0  0  0
 17 28  1  0  0  0  0
 11 29  1  0  0  0  0
 11 30  1  0  0  0  0
  1 31  1  0  0  0  0
  1 32  1  0  0  0  0
  1 33  1  0  0  0  0
  9 34  1  0  0  0  0
 13 35  1  0  0  0  0
 23 36  1  0  0  0  0
 20 37  1  0  0  0  0
 20 38  1  0  0  0  0
 15 39  1  0  0  0  0
 16 40  1  0  0  0  0
  4 41  1  0  0  0  0
M  END
> <Molecule ChEMBL ID>
CHEMBL60718

> <Class(50)>
1

> <Class(80)>
1

>  <salt>
false

>  <StandardizerResult>
Tautomerize (ID: Tautomerize)
Transform (ID: Transform NO2 (1))
Aromatize (ID: Aromatize)
Wedge Clean (ID: Wedge Clean)
Clean 2D (ID: Clean2D)

$$$$
CHEMBL403183
  Mrv2010 08032110442D          

 23 23  0  0  0  0            999 V2000
   -0.5841    2.2464    0.0000 C   0  0  0  0  0  0  0  0  0  0  0  0
   -0.5841    1.4214    0.0000 C   0  0  0  0  0  0  0  0  0  0  0  0
    0.1304    1.0089    0.0000 C   0  0  0  0  0  0  0  0  0  0  0  0
    0.1304    0.1839    0.0000 C   0  0  0  0  0  0  0  0  0  0  0  0
   -0.5841   -0.2286    0.0000 C   0  0  0  0  0  0  0  0  0  0  0  0
   -0.5841   -1.0536    0.0000 S   0  0  0  0  0  0  0  0  0  0  0  0
   -1.4091   -1.0536    0.0000 O   0  0  0  0  0  0  0  0  0  0  0  0
    0.2409   -1.0536    0.0000 O   0  0  0  0  0  0  0  0  0  0  0  0
   -0.5841   -1.8786    0.0000 C   0  0  0  0  0  0  0  0  0  0  0  0
   -1.2985   -2.2911    0.0000 C   0  0  0  0  0  0  0  0  0  0  0  0
   -1.2985   -3.1161    0.0000 C   0  0  0  0  0  0  0  0  0  0  0  0
   -1.2985   -3.9411    0.0000 N   0  0  0  0  0  0  0  0  0  0  0  0
   -1.2985    0.1839    0.0000 C   0  0  0  0  0  0  0  0  0  0  0  0
   -1.2985    1.0089    0.0000 C   0  0  0  0  0  0  0  0  0  0  0  0
    0.8449    1.4214    0.0000 H   0  0  0  0  0  0  0  0  0  0  0  0
   -2.0130   -0.2286    0.0000 H   0  0  0  0  0  0  0  0  0  0  0  0
    0.8449   -0.2286    0.0000 H   0  0  0  0  0  0  0  0  0  0  0  0
   -2.0130    1.4214    0.0000 H   0  0  0  0  0  0  0  0  0  0  0  0
    0.1304   -2.2911    0.0000 H   0  0  0  0  0  0  0  0  0  0  0  0
   -2.0130   -1.8786    0.0000 H   0  0  0  0  0  0  0  0  0  0  0  0
    0.2409    2.2464    0.0000 H   0  0  0  0  0  0  0  0  0  0  0  0
   -0.5841    3.0714    0.0000 H   0  0  0  0  0  0  0  0  0  0  0  0
   -1.4091    2.2464    0.0000 H   0  0  0  0  0  0  0  0  0  0  0  0
  1  2  1  0  0  0  0
  2  3  4  0  0  0  0
  2 14  4  0  0  0  0
  3  4  4  0  0  0  0
  4  5  4  0  0  0  0
  5  6  1  0  0  0  0
  5 13  4  0  0  0  0
  6  7  2  0  0  0  0
  6  8  2  0  0  0  0
  6  9  1  0  0  0  0
  9 10  2  0  0  0  0
 10 11  1  0  0  0  0
 11 12  3  0  0  0  0
 13 14  4  0  0  0  0
  3 15  1  0  0  0  0
 13 16  1  0  0  0  0
  4 17  1  0  0  0  0
 14 18  1  0  0  0  0
  9 19  1  0  0  0  0
 10 20  1  0  0  0  0
  1 21  1  0  0  0  0
  1 22  1  0  0  0  0
  1 23  1  0  0  0  0
M  END
> <Molecule ChEMBL ID>
CHEMBL403183

> <Class(50)>
1

> <Class(80)>
1

>  <salt>
false

>  <StandardizerResult>
Tautomerize (ID: Tautomerize)
Neutralize (ID: Neutralize)
Aromatize (ID: Aromatize)
Wedge Clean (ID: Wedge Clean)
Clean 2D (ID: Clean2D)

$$$$
CHEMBL1336959
  Mrv2010 08032110442D          

 28 30  0  0  0  0            999 V2000
   -3.1138   -2.1168    0.0000 C   0  0  0  0  0  0  0  0  0  0  0  0
   -2.2888   -2.1168    0.0000 C   0  0  0  0  0  0  0  0  0  0  0  0
   -1.8763   -1.4024    0.0000 C   0  0  0  0  0  0  0  0  0  0  0  0
   -1.0513   -1.4024    0.0000 C   0  0  0  0  0  0  0  0  0  0  0  0
   -0.6388   -2.1168    0.0000 C   0  0  0  0  0  0  0  0  0  0  0  0
    0.1862   -2.1168    0.0000 N   0  0  0  0  0  0  0  0  0  0  0  0
    0.6711   -1.4494    0.0000 S   0  0  0  0  0  0  0  0  0  0  0  0
    1.4557   -1.7043    0.0000 C   0  0  0  0  0  0  0  0  0  0  0  0
    2.1702   -1.2918    0.0000 C   0  0  0  0  0  0  0  0  0  0  0  0
    2.8847   -1.7043    0.0000 C   0  0  0  0  0  0  0  0  0  0  0  0
    2.8847   -2.5293    0.0000 C   0  0  0  0  0  0  0  0  0  0  0  0
    2.1702   -2.9418    0.0000 C   0  0  0  0  0  0  0  0  0  0  0  0
    1.4557   -2.5293    0.0000 C   0  0  0  0  0  0  0  0  0  0  0  0
    0.6711   -2.7843    0.0000 C   0  0  0  0  0  0  0  0  0  0  0  0
    0.4162   -3.5689    0.0000 O   0  0  0  0  0  0  0  0  0  0  0  0
   -1.0513   -2.8313    0.0000 C   0  0  0  0  0  0  0  0  0  0  0  0
   -1.8763   -2.8313    0.0000 C   0  0  0  0  0  0  0  0  0  0  0  0
   -2.2888   -0.6879    0.0000 H   0  0  0  0  0  0  0  0  0  0  0  0
    3.5991   -2.9418    0.0000 H   0  0  0  0  0  0  0  0  0  0  0  0
   -3.1138   -1.2918    0.0000 H   0  0  0  0  0  0  0  0  0  0  0  0
   -3.9388   -2.1168    0.0000 H   0  0  0  0  0  0  0  0  0  0  0  0
   -3.1138   -2.9418    0.0000 H   0  0  0  0  0  0  0  0  0  0  0  0
    3.5991   -1.2918    0.0000 H   0  0  0  0  0  0  0  0  0  0  0  0
   -2.2888   -3.5458    0.0000 H   0  0  0  0  0  0  0  0  0  0  0  0
    2.1702   -0.4668    0.0000 H   0  0  0  0  0  0  0  0  0  0  0  0
   -0.6388   -0.6879    0.0000 H   0  0  0  0  0  0  0  0  0  0  0  0
    2.1702   -3.7668    0.0000 H   0  0  0  0  0  0  0  0  0  0  0  0
   -0.6388   -3.5458    0.0000 H   0  0  0  0  0  0  0  0  0  0  0  0
  1  2  1  0  0  0  0
  2  3  4  0  0  0  0
  2 17  4  0  0  0  0
  3  4  4  0  0  0  0
  4  5  4  0  0  0  0
  5  6  1  0  0  0  0
  5 16  4  0  0  0  0
  6  7  1  0  0  0  0
  6 14  1  0  0  0  0
  7  8  1  0  0  0  0
  8  9  4  0  0  0  0
  8 13  4  0  0  0  0
  9 10  4  0  0  0  0
 10 11  4  0  0  0  0
 11 12  4  0  0  0  0
 12 13  4  0  0  0  0
 13 14  1  0  0  0  0
 14 15  2  0  0  0  0
 16 17  4  0  0  0  0
  3 18  1  0  0  0  0
 11 19  1  0  0  0  0
  1 20  1  0  0  0  0
  1 21  1  0  0  0  0
  1 22  1  0  0  0  0
 10 23  1  0  0  0  0
 17 24  1  0  0  0  0
  9 25  1  0  0  0  0
  4 26  1  0  0  0  0
 12 27  1  0  0  0  0
 16 28  1  0  0  0  0
M  END
> <Molecule ChEMBL ID>
CHEMBL1336959

> <Class(50)>
1

> <Class(80)>
1

>  <salt>
false

>  <StandardizerResult>
Tautomerize (ID: Tautomerize)
Neutralize (ID: Neutralize)
Aromatize (ID: Aromatize)
Wedge Clean (ID: Wedge Clean)
Clean 2D (ID: Clean2D)

$$$$
CHEMBL1917204
  Mrv2010 08032110442D          

 35 37  0  0  0  0            999 V2000
   -0.7139    4.2505    0.0000 C   0  0  0  0  0  0  0  0  0  0  0  0
   -0.7139    3.4255    0.0000 C   0  0  0  0  0  0  0  0  0  0  0  0
    0.0006    3.0130    0.0000 C   0  0  0  0  0  0  0  0  0  0  0  0
    0.0006    2.1880    0.0000 C   0  0  0  0  0  0  0  0  0  0  0  0
   -0.7139    1.7755    0.0000 C   0  0  0  0  0  0  0  0  0  0  0  0
   -0.7139    0.9505    0.0000 N   0  0  0  0  0  0  0  0  0  0  0  0
   -0.0465    0.4655    0.0000 S   0  0  0  0  0  0  0  0  0  0  0  0
   -0.3014   -0.3191    0.0000 C   0  0  0  0  0  0  0  0  0  0  0  0
    0.1835   -0.9865    0.0000 O   0  0  0  0  0  0  0  0  0  0  0  0
   -1.1264   -0.3191    0.0000 N   0  0  0  0  0  0  0  0  0  0  0  0
   -1.6113   -0.9865    0.0000 C   0  0  0  0  0  0  0  0  0  0  0  0
   -2.4318   -0.9003    0.0000 C   0  0  0  0  0  0  0  0  0  0  0  0
   -2.9167   -1.5677    0.0000 C   0  0  0  0  0  0  0  0  0  0  0  0
   -3.7372   -1.4815    0.0000 C   0  0  0  0  0  0  0  0  0  0  0  0
   -4.0728   -0.7278    0.0000 C   0  0  0  0  0  0  0  0  0  0  0  0
   -4.8933   -0.6416    0.0000 F   0  0  0  0  0  0  0  0  0  0  0  0
   -3.5879   -0.0604    0.0000 C   0  0  0  0  0  0  0  0  0  0  0  0
   -2.7674   -0.1466    0.0000 C   0  0  0  0  0  0  0  0  0  0  0  0
   -1.3814    0.4655    0.0000 C   0  0  0  0  0  0  0  0  0  0  0  0
   -2.1660    0.7205    0.0000 O   0  0  0  0  0  0  0  0  0  0  0  0
   -1.4284    2.1880    0.0000 C   0  0  0  0  0  0  0  0  0  0  0  0
   -1.4284    3.0130    0.0000 C   0  0  0  0  0  0  0  0  0  0  0  0
   -2.5812   -2.3214    0.0000 H   0  0  0  0  0  0  0  0  0  0  0  0
   -3.9234    0.6933    0.0000 H   0  0  0  0  0  0  0  0  0  0  0  0
   -4.2221   -2.1489    0.0000 H   0  0  0  0  0  0  0  0  0  0  0  0
   -2.1429    1.7755    0.0000 H   0  0  0  0  0  0  0  0  0  0  0  0
    0.7150    1.7755    0.0000 H   0  0  0  0  0  0  0  0  0  0  0  0
    0.7150    3.4255    0.0000 H   0  0  0  0  0  0  0  0  0  0  0  0
   -2.1429    3.4255    0.0000 H   0  0  0  0  0  0  0  0  0  0  0  0
   -1.6497   -1.8106    0.0000 H   0  0  0  0  0  0  0  0  0  0  0  0
   -0.9732   -1.5094    0.0000 H   0  0  0  0  0  0  0  0  0  0  0  0
    0.1111    4.2505    0.0000 H   0  0  0  0  0  0  0  0  0  0  0  0
   -0.7139    5.0755    0.0000 H   0  0  0  0  0  0  0  0  0  0  0  0
   -1.5389    4.2505    0.0000 H   0  0  0  0  0  0  0  0  0  0  0  0
   -2.2825    0.5208    0.0000 H   0  0  0  0  0  0  0  0  0  0  0  0
  1  2  1  0  0  0  0
  2  3  4  0  0  0  0
  2 22  4  0  0  0  0
  3  4  4  0  0  0  0
  4  5  4  0  0  0  0
  5  6  1  0  0  0  0
  5 21  4  0  0  0  0
  6  7  1  0  0  0  0
  6 19  1  0  0  0  0
  7  8  1  0  0  0  0
  8  9  2  0  0  0  0
  8 10  1  0  0  0  0
 10 11  1  0  0  0  0
 10 19  1  0  0  0  0
 11 12  1  0  0  0  0
 12 13  4  0  0  0  0
 12 18  4  0  0  0  0
 13 14  4  0  0  0  0
 14 15  4  0  0  0  0
 15 16  1  0  0  0  0
 15 17  4  0  0  0  0
 17 18  4  0  0  0  0
 19 20  2  0  0  0  0
 21 22  4  0  0  0  0
 13 23  1  0  0  0  0
 17 24  1  0  0  0  0
 14 25  1  0  0  0  0
 21 26  1  0  0  0  0
  4 27  1  0  0  0  0
  3 28  1  0  0  0  0
 22 29  1  0  0  0  0
 11 30  1  0  0  0  0
 11 31  1  0  0  0  0
  1 32  1  0  0  0  0
  1 33  1  0  0  0  0
  1 34  1  0  0  0  0
 18 35  1  0  0  0  0
M  END
> <Molecule ChEMBL ID>
CHEMBL1917204

> <Class(50)>
1

> <Class(80)>
1

>  <salt>
false

>  <StandardizerResult>
Tautomerize (ID: Tautomerize)
Neutralize (ID: Neutralize)
Aromatize (ID: Aromatize)
Wedge Clean (ID: Wedge Clean)
Clean 2D (ID: Clean2D)

$$$$
CHEMBL1725120
  Mrv2010 08032110442D          

 31 33  0  0  0  0            999 V2000
   -2.3299   -3.4959    0.0000 C   0  0  0  0  0  0  0  0  0  0  0  0
   -1.9174   -2.7814    0.0000 C   0  0  0  0  0  0  0  0  0  0  0  0
   -2.3299   -2.0669    0.0000 C   0  0  0  0  0  0  0  0  0  0  0  0
   -1.9174   -1.3524    0.0000 C   0  0  0  0  0  0  0  0  0  0  0  0
   -1.0924   -1.3524    0.0000 C   0  0  0  0  0  0  0  0  0  0  0  0
   -0.6799   -0.6380    0.0000 C   0  0  0  0  0  0  0  0  0  0  0  0
   -0.6799   -2.0669    0.0000 C   0  0  0  0  0  0  0  0  0  0  0  0
    0.1451   -2.0669    0.0000 N   0  0  0  0  0  0  0  0  0  0  0  0
    0.6300   -1.3995    0.0000 S   0  0  0  0  0  0  0  0  0  0  0  0
    1.4146   -1.6544    0.0000 C   0  0  0  0  0  0  0  0  0  0  0  0
    2.1291   -1.2419    0.0000 C   0  0  0  0  0  0  0  0  0  0  0  0
    2.8436   -1.6544    0.0000 C   0  0  0  0  0  0  0  0  0  0  0  0
    3.5580   -1.2419    0.0000 F   0  0  0  0  0  0  0  0  0  0  0  0
    2.8436   -2.4794    0.0000 C   0  0  0  0  0  0  0  0  0  0  0  0
    2.1291   -2.8919    0.0000 C   0  0  0  0  0  0  0  0  0  0  0  0
    1.4146   -2.4794    0.0000 C   0  0  0  0  0  0  0  0  0  0  0  0
    0.6300   -2.7344    0.0000 C   0  0  0  0  0  0  0  0  0  0  0  0
    0.3751   -3.5190    0.0000 O   0  0  0  0  0  0  0  0  0  0  0  0
   -1.0924   -2.7814    0.0000 C   0  0  0  0  0  0  0  0  0  0  0  0
    2.1291   -3.7169    0.0000 H   0  0  0  0  0  0  0  0  0  0  0  0
   -0.6799   -3.4959    0.0000 H   0  0  0  0  0  0  0  0  0  0  0  0
   -3.0444   -3.0834    0.0000 H   0  0  0  0  0  0  0  0  0  0  0  0
   -2.7424   -4.2103    0.0000 H   0  0  0  0  0  0  0  0  0  0  0  0
   -1.6154   -3.9084    0.0000 H   0  0  0  0  0  0  0  0  0  0  0  0
   -3.1549   -2.0669    0.0000 H   0  0  0  0  0  0  0  0  0  0  0  0
    2.1291   -0.4169    0.0000 H   0  0  0  0  0  0  0  0  0  0  0  0
    0.0346   -1.0505    0.0000 H   0  0  0  0  0  0  0  0  0  0  0  0
   -0.2674    0.0765    0.0000 H   0  0  0  0  0  0  0  0  0  0  0  0
   -1.3944   -0.2255    0.0000 H   0  0  0  0  0  0  0  0  0  0  0  0
    3.5580   -2.8919    0.0000 H   0  0  0  0  0  0  0  0  0  0  0  0
   -2.3299   -0.6380    0.0000 H   0  0  0  0  0  0  0  0  0  0  0  0
  1  2  1  0  0  0  0
  2  3  4  0  0  0  0
  2 19  4  0  0  0  0
  3  4  4  0  0  0  0
  4  5  4  0  0  0  0
  5  6  1  0  0  0  0
  5  7  4  0  0  0  0
  7  8  1  0  0  0  0
  7 19  4  0  0  0  0
  8  9  1  0  0  0  0
  8 17  1  0  0  0  0
  9 10  1  0  0  0  0
 10 11  4  0  0  0  0
 10 16  4  0  0  0  0
 11 12  4  0  0  0  0
 12 13  1  0  0  0  0
 12 14  4  0  0  0  0
 14 15  4  0  0  0  0
 15 16  4  0  0  0  0
 16 17  1  0  0  0  0
 17 18  2  0  0  0  0
 15 20  1  0  0  0  0
 19 21  1  0  0  0  0
  1 22  1  0  0  0  0
  1 23  1  0  0  0  0
  1 24  1  0  0  0  0
  3 25  1  0  0  0  0
 11 26  1  0  0  0  0
  6 27  1  0  0  0  0
  6 28  1  0  0  0  0
  6 29  1  0  0  0  0
 14 30  1  0  0  0  0
  4 31  1  0  0  0  0
M  END
> <Molecule ChEMBL ID>
CHEMBL1725120

> <Class(50)>
1

> <Class(80)>
1

>  <salt>
false

>  <StandardizerResult>
Tautomerize (ID: Tautomerize)
Neutralize (ID: Neutralize)
Aromatize (ID: Aromatize)
Wedge Clean (ID: Wedge Clean)
Clean 2D (ID: Clean2D)

$$$$
CHEMBL1610810
  Mrv2010 08032110442D          

 28 30  0  0  0  0            999 V2000
   -2.2207   -1.0928    0.0000 C   0  0  0  0  0  0  0  0  0  0  0  0
   -1.8082   -1.8072    0.0000 C   0  0  0  0  0  0  0  0  0  0  0  0
   -0.9832   -1.8072    0.0000 C   0  0  0  0  0  0  0  0  0  0  0  0
   -0.5707   -2.5217    0.0000 C   0  0  0  0  0  0  0  0  0  0  0  0
    0.2543   -2.5217    0.0000 C   0  0  0  0  0  0  0  0  0  0  0  0
    0.7392   -1.8543    0.0000 N   0  0  0  0  0  0  0  0  0  0  0  0
    1.5238   -2.1092    0.0000 C   0  0  0  0  0  0  0  0  0  0  0  0
    2.2383   -1.6967    0.0000 N   0  0  0  0  0  0  0  0  0  0  0  0
    2.9528   -2.1092    0.0000 C   0  0  0  0  0  0  0  0  0  0  0  0
    2.9528   -2.9342    0.0000 C   0  0  0  0  0  0  0  0  0  0  0  0
    2.2383   -3.3467    0.0000 C   0  0  0  0  0  0  0  0  0  0  0  0
    1.5238   -2.9342    0.0000 C   0  0  0  0  0  0  0  0  0  0  0  0
    0.7392   -3.1891    0.0000 O   0  0  0  0  0  0  0  0  0  0  0  0
   -0.9832   -3.2362    0.0000 C   0  0  0  0  0  0  0  0  0  0  0  0
   -1.8082   -3.2362    0.0000 C   0  0  0  0  0  0  0  0  0  0  0  0
   -2.2207   -2.5217    0.0000 C   0  0  0  0  0  0  0  0  0  0  0  0
   -3.0457   -2.5217    0.0000 N   0  0  0  0  0  0  0  0  0  0  0  0
   -2.2207   -3.9506    0.0000 H   0  0  0  0  0  0  0  0  0  0  0  0
    3.6672   -3.3467    0.0000 H   0  0  0  0  0  0  0  0  0  0  0  0
   -3.4582   -1.8072    0.0000 H   0  0  0  0  0  0  0  0  0  0  0  0
   -3.4582   -3.2362    0.0000 H   0  0  0  0  0  0  0  0  0  0  0  0
   -0.5707   -1.0928    0.0000 H   0  0  0  0  0  0  0  0  0  0  0  0
   -0.5707   -3.9506    0.0000 H   0  0  0  0  0  0  0  0  0  0  0  0
   -1.5062   -0.6803    0.0000 H   0  0  0  0  0  0  0  0  0  0  0  0
   -2.6332   -0.3783    0.0000 H   0  0  0  0  0  0  0  0  0  0  0  0
   -2.9352   -1.5053    0.0000 H   0  0  0  0  0  0  0  0  0  0  0  0
    2.2383   -4.1717    0.0000 H   0  0  0  0  0  0  0  0  0  0  0  0
    3.6672   -1.6967    0.0000 H   0  0  0  0  0  0  0  0  0  0  0  0
  1  2  1  0  0  0  0
  2  3  4  0  0  0  0
  2 16  4  0  0  0  0
  3  4  4  0  0  0  0
  4  5  1  0  0  0  0
  4 14  4  0  0  0  0
  5  6  4  0  0  0  0
  5 13  4  0  0  0  0
  6  7  4  0  0  0  0
  7  8  4  0  0  0  0
  7 12  4  0  0  0  0
  8  9  4  0  0  0  0
  9 10  4  0  0  0  0
 10 11  4  0  0  0  0
 11 12  4  0  0  0  0
 12 13  4  0  0  0  0
 14 15  4  0  0  0  0
 15 16  4  0  0  0  0
 16 17  1  0  0  0  0
 15 18  1  0  0  0  0
 10 19  1  0  0  0  0
 17 20  1  0  0  0  0
 17 21  1  0  0  0  0
  3 22  1  0  0  0  0
 14 23  1  0  0  0  0
  1 24  1  0  0  0  0
  1 25  1  0  0  0  0
  1 26  1  0  0  0  0
 11 27  1  0  0  0  0
  9 28  1  0  0  0  0
M  END
> <Molecule ChEMBL ID>
CHEMBL1610810

> <Class(50)>
1

> <Class(80)>
1

>  <salt>
false

>  <StandardizerResult>
Tautomerize (ID: Tautomerize)
Neutralize (ID: Neutralize)
Aromatize (ID: Aromatize)
Wedge Clean (ID: Wedge Clean)
Clean 2D (ID: Clean2D)

$$$$
CHEMBL1015
  Mrv2010 08032110442D          

 86 91  0  0  0  0            999 V2000
    5.4252   -4.1562    0.0000 C   0  0  0  0  0  0  0  0  0  0  0  0
    4.7107   -3.7437    0.0000 C   0  0  0  0  0  0  0  0  0  0  0  0
    3.9962   -4.1562    0.0000 C   0  0  0  0  0  0  0  0  0  0  0  0
    3.2818   -3.7437    0.0000 C   0  0  0  0  0  0  0  0  0  0  0  0
    2.5673   -4.1562    0.0000 C   0  0  0  0  0  0  0  0  0  0  0  0
    2.5673   -4.9812    0.0000 C   0  0  0  0  0  0  0  0  0  0  0  0
    1.8528   -5.3937    0.0000 C   0  0  0  0  0  0  0  0  0  0  0  0
    1.1384   -4.9812    0.0000 C   0  0  0  0  0  0  0  0  0  0  0  0
    0.4239   -5.3937    0.0000 N   0  0  0  0  0  0  0  0  0  0  0  0
   -0.2906   -4.9812    0.0000 N   0  0  0  0  0  0  0  0  0  0  0  0
   -1.0051   -5.3937    0.0000 C   0  0  0  0  0  0  0  0  0  0  0  0
   -1.7195   -4.9812    0.0000 C   0  0  0  0  0  0  0  0  0  0  0  0
   -2.4340   -5.3937    0.0000 C   0  0  0  0  0  0  0  0  0  0  0  0
   -2.4340   -6.2187    0.0000 C   0  0  0  0  0  0  0  0  0  0  0  0
   -3.1485   -6.6312    0.0000 C   0  0  0  0  0  0  0  0  0  0  0  0
   -3.8629   -6.2187    0.0000 S   0  0  0  0  0  0  0  0  0  0  0  0
   -4.5774   -5.8062    0.0000 O   0  0  0  0  0  0  0  0  0  0  0  0
   -4.2754   -6.9332    0.0000 O   0  0  0  0  0  0  0  0  0  0  0  0
   -3.4504   -5.5042    0.0000 O   0  0  0  0  0  0  0  0  0  0  0  0
   -3.1485   -7.4562    0.0000 C   0  0  0  0  0  0  0  0  0  0  0  0
   -2.4340   -7.8687    0.0000 C   0  0  0  0  0  0  0  0  0  0  0  0
   -2.4340   -8.6937    0.0000 S   0  0  0  0  0  0  0  0  0  0  0  0
   -2.4340   -9.5187    0.0000 O   0  0  0  0  0  0  0  0  0  0  0  0
   -3.2590   -8.6937    0.0000 O   0  0  0  0  0  0  0  0  0  0  0  0
   -1.6090   -8.6937    0.0000 O   0  0  0  0  0  0  0  0  0  0  0  0
   -1.7195   -7.4562    0.0000 C   0  0  0  0  0  0  0  0  0  0  0  0
   -1.0051   -7.8687    0.0000 N   0  0  0  0  0  0  0  0  0  0  0  0
   -1.7195   -6.6312    0.0000 C   0  0  0  0  0  0  0  0  0  0  0  0
   -1.0051   -6.2187    0.0000 C   0  0  0  0  0  0  0  0  0  0  0  0
   -0.2906   -6.6312    0.0000 O   0  0  0  0  0  0  0  0  0  0  0  0
    1.1384   -4.1562    0.0000 C   0  0  0  0  0  0  0  0  0  0  0  0
    0.4239   -3.7437    0.0000 C   0  0  0  0  0  0  0  0  0  0  0  0
    1.8528   -3.7437    0.0000 C   0  0  0  0  0  0  0  0  0  0  0  0
    3.2818   -2.9187    0.0000 C   0  0  0  0  0  0  0  0  0  0  0  0
    3.9962   -2.5062    0.0000 C   0  0  0  0  0  0  0  0  0  0  0  0
    4.7107   -2.9187    0.0000 C   0  0  0  0  0  0  0  0  0  0  0  0
    5.4252   -2.5062    0.0000 N   0  0  0  0  0  0  0  0  0  0  0  0
    5.4252   -1.6812    0.0000 N   0  0  0  0  0  0  0  0  0  0  0  0
    6.1396   -1.2687    0.0000 C   0  0  0  0  0  0  0  0  0  0  0  0
    6.1396   -0.4437    0.0000 C   0  0  0  0  0  0  0  0  0  0  0  0
    6.8541   -0.0312    0.0000 C   0  0  0  0  0  0  0  0  0  0  0  0
    7.5686   -0.4437    0.0000 C   0  0  0  0  0  0  0  0  0  0  0  0
    8.2831   -0.0312    0.0000 C   0  0  0  0  0  0  0  0  0  0  0  0
    8.2831    0.7938    0.0000 S   0  0  0  0  0  0  0  0  0  0  0  0
    8.2831    1.6188    0.0000 O   0  0  0  0  0  0  0  0  0  0  0  0
    9.1081    0.7938    0.0000 O   0  0  0  0  0  0  0  0  0  0  0  0
    7.4581    0.7938    0.0000 O   0  0  0  0  0  0  0  0  0  0  0  0
    8.9975   -0.4437    0.0000 C   0  0  0  0  0  0  0  0  0  0  0  0
    8.9975   -1.2687    0.0000 C   0  0  0  0  0  0  0  0  0  0  0  0
    9.7120   -1.6812    0.0000 S   0  0  0  0  0  0  0  0  0  0  0  0
   10.4265   -2.0937    0.0000 O   0  0  0  0  0  0  0  0  0  0  0  0
    9.2995   -2.3957    0.0000 O   0  0  0  0  0  0  0  0  0  0  0  0
   10.1245   -0.9667    0.0000 O   0  0  0  0  0  0  0  0  0  0  0  0
    8.2831   -1.6812    0.0000 C   0  0  0  0  0  0  0  0  0  0  0  0
    8.2831   -2.5062    0.0000 N   0  0  0  0  0  0  0  0  0  0  0  0
    7.5686   -1.2687    0.0000 C   0  0  0  0  0  0  0  0  0  0  0  0
    6.8541   -1.6812    0.0000 C   0  0  0  0  0  0  0  0  0  0  0  0
    6.8541   -2.5062    0.0000 O   0  0  0  0  0  0  0  0  0  0  0  0
   -4.1649   -5.0917    0.0000 H   0  0  0  0  0  0  0  0  0  0  0  0
    1.8528   -2.9187    0.0000 H   0  0  0  0  0  0  0  0  0  0  0  0
    3.9962   -4.9812    0.0000 H   0  0  0  0  0  0  0  0  0  0  0  0
   -1.7195   -4.1562    0.0000 H   0  0  0  0  0  0  0  0  0  0  0  0
    3.2818   -5.3937    0.0000 H   0  0  0  0  0  0  0  0  0  0  0  0
   -1.1965   -9.4082    0.0000 H   0  0  0  0  0  0  0  0  0  0  0  0
    3.9962   -1.6812    0.0000 H   0  0  0  0  0  0  0  0  0  0  0  0
   10.9495   -0.9667    0.0000 H   0  0  0  0  0  0  0  0  0  0  0  0
   -3.1485   -4.9812    0.0000 H   0  0  0  0  0  0  0  0  0  0  0  0
    5.0127   -4.8707    0.0000 H   0  0  0  0  0  0  0  0  0  0  0  0
    6.1396   -4.5687    0.0000 H   0  0  0  0  0  0  0  0  0  0  0  0
    5.8377   -3.4417    0.0000 H   0  0  0  0  0  0  0  0  0  0  0  0
   -1.0051   -8.6937    0.0000 H   0  0  0  0  0  0  0  0  0  0  0  0
   -0.2906   -7.4562    0.0000 H   0  0  0  0  0  0  0  0  0  0  0  0
    5.4252   -0.0312    0.0000 H   0  0  0  0  0  0  0  0  0  0  0  0
    1.8528   -6.2187    0.0000 H   0  0  0  0  0  0  0  0  0  0  0  0
    6.1396   -2.9187    0.0000 H   0  0  0  0  0  0  0  0  0  0  0  0
    6.8541    0.7938    0.0000 H   0  0  0  0  0  0  0  0  0  0  0  0
   -3.8629   -7.8687    0.0000 H   0  0  0  0  0  0  0  0  0  0  0  0
    7.4581    1.6188    0.0000 H   0  0  0  0  0  0  0  0  0  0  0  0
    9.7120   -0.0312    0.0000 H   0  0  0  0  0  0  0  0  0  0  0  0
    0.8364   -3.0292    0.0000 H   0  0  0  0  0  0  0  0  0  0  0  0
   -0.2906   -3.3312    0.0000 H   0  0  0  0  0  0  0  0  0  0  0  0
    0.0114   -4.4582    0.0000 H   0  0  0  0  0  0  0  0  0  0  0  0
    7.5686   -2.9187    0.0000 H   0  0  0  0  0  0  0  0  0  0  0  0
    8.9975   -2.9187    0.0000 H   0  0  0  0  0  0  0  0  0  0  0  0
    2.5673   -2.5062    0.0000 H   0  0  0  0  0  0  0  0  0  0  0  0
    0.4239   -6.2187    0.0000 H   0  0  0  0  0  0  0  0  0  0  0  0
  1  2  1  0  0  0  0
  2  3  4  0  0  0  0
  2 36  4  0  0  0  0
  3  4  4  0  0  0  0
  4  5  1  0  0  0  0
  4 34  4  0  0  0  0
  5  6  4  0  0  0  0
  5 33  4  0  0  0  0
  6  7  4  0  0  0  0
  7  8  4  0  0  0  0
  8  9  1  0  0  0  0
  8 31  4  0  0  0  0
 10  9  1  4  0  0  0
 10 11  2  0  0  0  0
 11 12  1  0  0  0  0
 11 29  1  0  0  0  0
 12 13  2  0  0  0  0
 13 14  1  0  0  0  0
 14 15  4  0  0  0  0
 14 28  4  0  0  0  0
 15 16  1  0  0  0  0
 15 20  4  0  0  0  0
 16 17  2  0  0  0  0
 16 18  2  0  0  0  0
 16 19  1  0  0  0  0
 20 21  4  0  0  0  0
 21 22  1  0  0  0  0
 21 26  4  0  0  0  0
 22 23  2  0  0  0  0
 22 24  2  0  0  0  0
 22 25  1  0  0  0  0
 26 27  1  0  0  0  0
 26 28  4  0  0  0  0
 28 29  1  0  0  0  0
 29 30  2  0  0  0  0
 31 32  1  0  0  0  0
 31 33  4  0  0  0  0
 34 35  4  0  0  0  0
 35 36  4  0  0  0  0
 36 37  1  0  0  0  0
 38 37  1  4  0  0  0
 38 39  2  0  0  0  0
 39 40  1  0  0  0  0
 39 57  1  0  0  0  0
 40 41  2  0  0  0  0
 41 42  1  0  0  0  0
 42 43  4  0  0  0  0
 42 56  4  0  0  0  0
 43 44  1  0  0  0  0
 43 48  4  0  0  0  0
 44 45  2  0  0  0  0
 44 46  2  0  0  0  0
 44 47  1  0  0  0  0
 48 49  4  0  0  0  0
 49 50  1  0  0  0  0
 49 54  4  0  0  0  0
 50 51  2  0  0  0  0
 50 52  2  0  0  0  0
 50 53  1  0  0  0  0
 54 55  1  0  0  0  0
 54 56  4  0  0  0  0
 56 57  1  0  0  0  0
 57 58  2  0  0  0  0
 19 59  1  0  0  0  0
 33 60  1  0  0  0  0
  3 61  1  0  0  0  0
 12 62  1  0  0  0  0
  6 63  1  0  0  0  0
 25 64  1  0  0  0  0
 35 65  1  0  0  0  0
 53 66  1  0  0  0  0
 13 67  1  0  0  0  0
  1 68  1  0  0  0  0
  1 69  1  0  0  0  0
  1 70  1  0  0  0  0
 27 71  1  0  0  0  0
 27 72  1  0  0  0  0
 40 73  1  0  0  0  0
  7 74  1  0  0  0  0
 37 75  1  0  0  0  0
 41 76  1  0  0  0  0
 20 77  1  0  0  0  0
 47 78  1  0  0  0  0
 48 79  1  0  0  0  0
 32 80  1  0  0  0  0
 32 81  1  0  0  0  0
 32 82  1  0  0  0  0
 55 83  1  0  0  0  0
 55 84  1  0  0  0  0
 34 85  1  0  0  0  0
  9 86  1  0  0  0  0
M  END
> <Molecule ChEMBL ID>
CHEMBL1015

> <Class(50)>
1

> <Class(80)>
1

>  <salt>
false

>  <StandardizerResult>
Tautomerize (ID: Tautomerize)
Neutralize (ID: Neutralize)
Aromatize (ID: Aromatize)
Wedge Clean (ID: Wedge Clean)
Clean 2D (ID: Clean2D)

$$$$
CHEMBL12208
  Mrv2010 08032110442D          

 21 22  0  0  0  0            999 V2000
   -1.0636   -1.9718    0.0000 C   0  0  0  0  0  0  0  0  0  0  0  0
   -1.0636   -1.1468    0.0000 C   0  0  0  0  0  0  0  0  0  0  0  0
   -1.7781   -0.7343    0.0000 C   0  0  0  0  0  0  0  0  0  0  0  0
   -1.7781    0.0907    0.0000 C   0  0  0  0  0  0  0  0  0  0  0  0
   -2.4926    0.5032    0.0000 O   0  0  0  0  0  0  0  0  0  0  0  0
   -1.0636    0.5032    0.0000 O   0  0  0  0  0  0  0  0  0  0  0  0
   -0.3492    0.0907    0.0000 C   0  0  0  0  0  0  0  0  0  0  0  0
    0.3653    0.5032    0.0000 C   0  0  0  0  0  0  0  0  0  0  0  0
    1.0798    0.0907    0.0000 C   0  0  0  0  0  0  0  0  0  0  0  0
    1.7942    0.5032    0.0000 O   0  0  0  0  0  0  0  0  0  0  0  0
    1.0798   -0.7343    0.0000 C   0  0  0  0  0  0  0  0  0  0  0  0
    0.3653   -1.1468    0.0000 C   0  0  0  0  0  0  0  0  0  0  0  0
   -0.3492   -0.7343    0.0000 C   0  0  0  0  0  0  0  0  0  0  0  0
   -1.8886   -1.9718    0.0000 H   0  0  0  0  0  0  0  0  0  0  0  0
   -1.0636   -2.7968    0.0000 H   0  0  0  0  0  0  0  0  0  0  0  0
   -0.2386   -1.9718    0.0000 H   0  0  0  0  0  0  0  0  0  0  0  0
    2.5087    0.0907    0.0000 H   0  0  0  0  0  0  0  0  0  0  0  0
   -2.4926   -1.1468    0.0000 H   0  0  0  0  0  0  0  0  0  0  0  0
    0.3653    1.3282    0.0000 H   0  0  0  0  0  0  0  0  0  0  0  0
    1.7942   -1.1468    0.0000 H   0  0  0  0  0  0  0  0  0  0  0  0
    0.3653   -1.9718    0.0000 H   0  0  0  0  0  0  0  0  0  0  0  0
  1  2  1  0  0  0  0
  2  3  2  0  0  0  0
  2 13  1  0  0  0  0
  3  4  1  0  0  0  0
  4  5  2  0  0  0  0
  4  6  1  0  0  0  0
  6  7  1  0  0  0  0
  7  8  4  0  0  0  0
  7 13  4  0  0  0  0
  8  9  4  0  0  0  0
  9 10  1  0  0  0  0
  9 11  4  0  0  0  0
 11 12  4  0  0  0  0
 12 13  4  0  0  0  0
  1 14  1  0  0  0  0
  1 15  1  0  0  0  0
  1 16  1  0  0  0  0
 10 17  1  0  0  0  0
  3 18  1  0  0  0  0
  8 19  1  0  0  0  0
 11 20  1  0  0  0  0
 12 21  1  0  0  0  0
M  END
> <Molecule ChEMBL ID>
CHEMBL12208

> <Class(50)>
1

> <Class(80)>
1

>  <salt>
false

>  <StandardizerResult>
Tautomerize (ID: Tautomerize)
Neutralize (ID: Neutralize)
Aromatize (ID: Aromatize)
Wedge Clean (ID: Wedge Clean)
Clean 2D (ID: Clean2D)

$$$$
CHEMBL480
  Mrv2010 08032110442D          

 39 41  0  0  1  0            999 V2000
   -0.6567   -4.4440    0.0000 C   0  0  0  0  0  0  0  0  0  0  0  0
   -1.0692   -3.7295    0.0000 C   0  0  0  0  0  0  0  0  0  0  0  0
   -1.8942   -3.7295    0.0000 C   0  0  0  0  0  0  0  0  0  0  0  0
   -2.3067   -4.4440    0.0000 O   0  0  0  0  0  0  0  0  0  0  0  0
   -3.1317   -4.4440    0.0000 C   0  0  0  0  0  0  0  0  0  0  0  0
   -3.5442   -5.1585    0.0000 C   0  0  0  0  0  0  0  0  0  0  0  0
   -3.9567   -5.8729    0.0000 F   0  0  0  0  0  0  0  0  0  0  0  0
   -2.8297   -5.5710    0.0000 F   0  0  0  0  0  0  0  0  0  0  0  0
   -4.2587   -4.7460    0.0000 F   0  0  0  0  0  0  0  0  0  0  0  0
   -2.3067   -3.0150    0.0000 C   0  0  0  0  0  0  0  0  0  0  0  0
   -1.8942   -2.3006    0.0000 C   0  0  0  0  0  0  0  0  0  0  0  0
   -1.0692   -2.3006    0.0000 N   0  0  0  0  0  0  0  0  0  0  0  0
   -0.6567   -3.0150    0.0000 C   0  0  0  0  0  0  0  0  0  0  0  0
    0.1683   -3.0150    0.0000 C   0  0  0  0  0  0  0  0  0  0  0  0
    0.5808   -2.3006    0.0000 S   0  0  0  0  0  0  0  0  0  0  0  0
    0.1683   -1.5861    0.0000 O   0  0  0  0  0  0  0  0  0  0  0  0
    1.4058   -2.3006    0.0000 C   0  0  0  0  0  0  0  0  0  0  0  0
    1.8907   -1.6331    0.0000 N   0  0  0  0  0  0  0  0  0  0  0  0
    2.6753   -1.8881    0.0000 C   0  0  0  0  0  0  0  0  0  0  0  0
    3.3898   -1.4756    0.0000 C   0  0  0  0  0  0  0  0  0  0  0  0
    4.1043   -1.8881    0.0000 C   0  0  0  0  0  0  0  0  0  0  0  0
    4.1043   -2.7131    0.0000 C   0  0  0  0  0  0  0  0  0  0  0  0
    3.3898   -3.1256    0.0000 C   0  0  0  0  0  0  0  0  0  0  0  0
    2.6753   -2.7131    0.0000 C   0  0  0  0  0  0  0  0  0  0  0  0
    1.8907   -2.9680    0.0000 N   0  0  0  0  0  0  0  0  0  0  0  0
   -1.3712   -4.8565    0.0000 H   0  0  0  0  0  0  0  0  0  0  0  0
   -0.2442   -5.1585    0.0000 H   0  0  0  0  0  0  0  0  0  0  0  0
    0.0578   -4.0315    0.0000 H   0  0  0  0  0  0  0  0  0  0  0  0
    4.8188   -3.1256    0.0000 H   0  0  0  0  0  0  0  0  0  0  0  0
    3.3898   -0.6506    0.0000 H   0  0  0  0  0  0  0  0  0  0  0  0
    1.6358   -3.7526    0.0000 H   0  0  0  0  0  0  0  0  0  0  0  0
   -3.1317   -3.0150    0.0000 H   0  0  0  0  0  0  0  0  0  0  0  0
    0.2163   -3.8387    0.0000 H   0  0  0  0  0  0  0  0  0  0  0  0
    0.8576   -3.4684    0.0000 H   0  0  0  0  0  0  0  0  0  0  0  0
    3.3898   -3.9506    0.0000 H   0  0  0  0  0  0  0  0  0  0  0  0
   -3.1797   -3.6204    0.0000 H   0  0  0  0  0  0  0  0  0  0  0  0
   -3.8210   -3.9906    0.0000 H   0  0  0  0  0  0  0  0  0  0  0  0
    4.8188   -1.4756    0.0000 H   0  0  0  0  0  0  0  0  0  0  0  0
   -2.3067   -1.5861    0.0000 H   0  0  0  0  0  0  0  0  0  0  0  0
  1  2  1  0  0  0  0
  2  3  4  0  0  0  0
  2 13  4  0  0  0  0
  3  4  1  0  0  0  0
  3 10  4  0  0  0  0
  4  5  1  0  0  0  0
  5  6  1  0  0  0  0
  6  7  1  0  0  0  0
  6  8  1  0  0  0  0
  6  9  1  0  0  0  0
 10 11  4  0  0  0  0
 11 12  4  0  0  0  0
 12 13  4  0  0  0  0
 13 14  1  0  0  0  0
 14 15  1  0  0  0  0
 15 16  2  0  0  0  0
 15 17  1  0  0  0  0
 17 18  4  0  0  0  0
 17 25  4  0  0  0  0
 18 19  4  0  0  0  0
 19 20  4  0  0  0  0
 19 24  4  0  0  0  0
 20 21  4  0  0  0  0
 21 22  4  0  0  0  0
 22 23  4  0  0  0  0
 23 24  4  0  0  0  0
 24 25  4  0  0  0  0
  1 26  1  0  0  0  0
  1 27  1  0  0  0  0
  1 28  1  0  0  0  0
 22 29  1  0  0  0  0
 20 30  1  0  0  0  0
 25 31  1  0  0  0  0
 10 32  1  0  0  0  0
 14 33  1  0  0  0  0
 14 34  1  0  0  0  0
 23 35  1  0  0  0  0
  5 36  1  0  0  0  0
  5 37  1  0  0  0  0
 21 38  1  0  0  0  0
 11 39  1  0  0  0  0
M  END
> <Molecule ChEMBL ID>
CHEMBL480

> <Class(50)>
1

> <Class(80)>
1

>  <salt>
false

>  <StandardizerResult>
Tautomerize (ID: Tautomerize)
Transform (ID: Transform NO2 (1))
Aromatize (ID: Aromatize)
Wedge Clean (ID: Wedge Clean)
Clean 2D (ID: Clean2D)

$$$$
CHEMBL178459
  Mrv2010 08032110442D          

 19 20  0  0  0  0            999 V2000
   -0.2297   -0.0055    0.0000 C   0  0  0  0  0  0  0  0  0  0  0  0
   -0.2297   -0.8305    0.0000 C   0  0  0  0  0  0  0  0  0  0  0  0
    0.4378   -1.3154    0.0000 C   0  0  0  0  0  0  0  0  0  0  0  0
    1.2224   -1.0605    0.0000 C   0  0  0  0  0  0  0  0  0  0  0  0
    1.3939   -0.2535    0.0000 C   0  0  0  0  0  0  0  0  0  0  0  0
    2.1785    0.0014    0.0000 N   0  0  0  0  0  0  0  0  0  0  0  0
    2.7916   -0.5506    0.0000 C   0  0  0  0  0  0  0  0  0  0  0  0
    2.6201   -1.3576    0.0000 C   0  0  0  0  0  0  0  0  0  0  0  0
    1.8355   -1.6125    0.0000 N   0  0  0  0  0  0  0  0  0  0  0  0
    0.1828   -2.1000    0.0000 S   0  0  0  0  0  0  0  0  0  0  0  0
   -0.6422   -2.1000    0.0000 S   0  0  0  0  0  0  0  0  0  0  0  0
   -0.8971   -1.3154    0.0000 C   0  0  0  0  0  0  0  0  0  0  0  0
   -1.6817   -1.0605    0.0000 S   0  0  0  0  0  0  0  0  0  0  0  0
    1.3885    0.5715    0.0000 H   0  0  0  0  0  0  0  0  0  0  0  0
    0.5953   -0.0055    0.0000 H   0  0  0  0  0  0  0  0  0  0  0  0
   -0.2297    0.8195    0.0000 H   0  0  0  0  0  0  0  0  0  0  0  0
   -1.0547   -0.0055    0.0000 H   0  0  0  0  0  0  0  0  0  0  0  0
    3.5762   -0.2957    0.0000 H   0  0  0  0  0  0  0  0  0  0  0  0
    3.2332   -1.9096    0.0000 H   0  0  0  0  0  0  0  0  0  0  0  0
  1  2  1  0  0  0  0
  2  3  2  0  0  0  0
  2 12  1  0  0  0  0
  3  4  1  0  0  0  0
  3 10  1  0  0  0  0
  4  5  4  0  0  0  0
  4  9  4  0  0  0  0
  5  6  4  0  0  0  0
  6  7  4  0  0  0  0
  7  8  4  0  0  0  0
  8  9  4  0  0  0  0
 10 11  1  0  0  0  0
 11 12  1  0  0  0  0
 12 13  2  0  0  0  0
  5 14  1  0  0  0  0
  1 15  1  0  0  0  0
  1 16  1  0  0  0  0
  1 17  1  0  0  0  0
  7 18  1  0  0  0  0
  8 19  1  0  0  0  0
M  END
> <Molecule ChEMBL ID>
CHEMBL178459

> <Class(50)>
1

> <Class(80)>
1

>  <salt>
false

>  <StandardizerResult>
Tautomerize (ID: Tautomerize)
Neutralize (ID: Neutralize)
Aromatize (ID: Aromatize)
Wedge Clean (ID: Wedge Clean)
Clean 2D (ID: Clean2D)

$$$$
CHEMBL518800
  Mrv2010 08032110442D          

 61 64  0  0  1  0            999 V2000
    2.7184    5.9323    0.0000 C   0  0  0  0  0  0  0  0  0  0  0  0
    2.7184    5.1073    0.0000 C   0  0  0  0  0  0  0  0  0  0  0  0
    2.0039    4.6948    0.0000 C   0  0  1  0  0  0  0  0  0  0  0  0
    1.2894    5.1073    0.0000 C   0  0  0  0  0  0  0  0  0  0  0  0
    0.5750    4.6948    0.0000 O   0  0  0  0  0  0  0  0  0  0  0  0
    2.0039    3.8698    0.0000 N   0  0  0  0  0  0  0  0  0  0  0  0
    1.2894    3.4573    0.0000 C   0  0  0  0  0  0  0  0  0  0  0  0
    1.2894    2.6323    0.0000 N   0  0  0  0  0  0  0  0  0  0  0  0
    0.5750    2.2198    0.0000 C   0  0  0  0  0  0  0  0  0  0  0  0
    0.5750    1.3948    0.0000 N   0  0  0  0  0  0  0  0  0  0  0  0
    1.2894    0.9823    0.0000 C   0  0  0  0  0  0  0  0  0  0  0  0
    1.2894    0.1573    0.0000 C   0  0  0  0  0  0  0  0  0  0  0  0
    2.0039   -0.2552    0.0000 C   0  0  0  0  0  0  0  0  0  0  0  0
    2.0039   -1.0802    0.0000 C   0  0  0  0  0  0  0  0  0  0  0  0
    1.2894   -1.4927    0.0000 C   0  0  0  0  0  0  0  0  0  0  0  0
    1.2894   -2.3177    0.0000 C   0  0  0  0  0  0  0  0  0  0  0  0
    2.0039   -2.7302    0.0000 C   0  0  0  0  0  0  0  0  0  0  0  0
    2.0039   -3.5552    0.0000 C   0  0  0  0  0  0  0  0  0  0  0  0
    1.2894   -3.9677    0.0000 C   0  0  0  0  0  0  0  0  0  0  0  0
    0.5750   -3.5552    0.0000 C   0  0  0  0  0  0  0  0  0  0  0  0
    0.5750   -2.7302    0.0000 N   0  0  0  0  0  0  0  0  0  0  0  0
    0.5750   -1.0802    0.0000 C   0  0  0  0  0  0  0  0  0  0  0  0
    0.5750   -0.2552    0.0000 C   0  0  0  0  0  0  0  0  0  0  0  0
   -0.1395    2.6323    0.0000 C   0  0  0  0  0  0  0  0  0  0  0  0
   -0.9241    2.3774    0.0000 N   0  0  0  0  0  0  0  0  0  0  0  0
   -1.4091    3.0448    0.0000 C   0  0  0  0  0  0  0  0  0  0  0  0
   -0.9241    3.7123    0.0000 N   0  0  0  0  0  0  0  0  0  0  0  0
   -1.1791    4.4969    0.0000 C   0  0  0  0  0  0  0  0  0  0  0  0
   -0.6270    5.1100    0.0000 C   0  0  0  0  0  0  0  0  0  0  0  0
   -1.9860    4.6684    0.0000 C   0  0  0  0  0  0  0  0  0  0  0  0
   -0.1395    3.4573    0.0000 C   0  0  0  0  0  0  0  0  0  0  0  0
    0.5750    3.8698    0.0000 N   0  0  0  0  0  0  0  0  0  0  0  0
    1.2894   -4.7927    0.0000 H   0  0  0  0  0  0  0  0  0  0  0  0
   -0.1395   -3.9677    0.0000 H   0  0  0  0  0  0  0  0  0  0  0  0
    3.5434    5.9323    0.0000 H   0  0  0  0  0  0  0  0  0  0  0  0
    2.7184    6.7573    0.0000 H   0  0  0  0  0  0  0  0  0  0  0  0
    1.8934    5.9323    0.0000 H   0  0  0  0  0  0  0  0  0  0  0  0
    2.0039    5.5198    0.0000 H   0  0  0  0  0  0  0  0  0  0  0  0
   -0.1395    0.9823    0.0000 H   0  0  0  0  0  0  0  0  0  0  0  0
    2.7184    0.1573    0.0000 H   0  0  0  0  0  0  0  0  0  0  0  0
    0.1314    5.4346    0.0000 H   0  0  0  0  0  0  0  0  0  0  0  0
   -0.6479    5.9347    0.0000 H   0  0  0  0  0  0  0  0  0  0  0  0
   -1.4009    5.3959    0.0000 H   0  0  0  0  0  0  0  0  0  0  0  0
   -2.2735    5.4417    0.0000 H   0  0  0  0  0  0  0  0  0  0  0  0
   -2.7975    4.8174    0.0000 H   0  0  0  0  0  0  0  0  0  0  0  0
   -2.5295    4.0477    0.0000 H   0  0  0  0  0  0  0  0  0  0  0  0
    3.1717    4.4180    0.0000 H   0  0  0  0  0  0  0  0  0  0  0  0
    3.5420    5.0593    0.0000 H   0  0  0  0  0  0  0  0  0  0  0  0
    2.7184    3.4573    0.0000 H   0  0  0  0  0  0  0  0  0  0  0  0
   -2.2341    3.0448    0.0000 H   0  0  0  0  0  0  0  0  0  0  0  0
   -1.7311    3.8838    0.0000 H   0  0  0  0  0  0  0  0  0  0  0  0
    2.1130    1.0303    0.0000 H   0  0  0  0  0  0  0  0  0  0  0  0
    1.7428    1.6716    0.0000 H   0  0  0  0  0  0  0  0  0  0  0  0
   -0.1395    0.1573    0.0000 H   0  0  0  0  0  0  0  0  0  0  0  0
    1.1462    5.9198    0.0000 H   0  0  0  0  0  0  0  0  0  0  0  0
    0.6574    5.6376    0.0000 H   0  0  0  0  0  0  0  0  0  0  0  0
    2.7184   -3.9677    0.0000 H   0  0  0  0  0  0  0  0  0  0  0  0
    2.7184   -2.3177    0.0000 H   0  0  0  0  0  0  0  0  0  0  0  0
    2.7184   -1.4927    0.0000 H   0  0  0  0  0  0  0  0  0  0  0  0
   -0.1395   -1.4927    0.0000 H   0  0  0  0  0  0  0  0  0  0  0  0
   -0.2493    4.7308    0.0000 H   0  0  0  0  0  0  0  0  0  0  0  0
  1  2  1  0  0  0  0
  3  2  1  0  0  0  0
  3  4  1  0  0  0  0
  3  6  1  0  0  0  0
  4  5  1  0  0  0  0
  6  7  1  0  0  0  0
  7  8  4  0  0  0  0
  7 32  4  0  0  0  0
  8  9  4  0  0  0  0
  9 10  1  0  0  0  0
  9 24  4  0  0  0  0
 10 11  1  0  0  0  0
 11 12  1  0  0  0  0
 12 13  4  0  0  0  0
 12 23  4  0  0  0  0
 13 14  4  0  0  0  0
 14 15  4  0  0  0  0
 15 16  1  0  0  0  0
 15 22  4  0  0  0  0
 16 17  4  0  0  0  0
 16 21  4  0  0  0  0
 17 18  4  0  0  0  0
 18 19  4  0  0  0  0
 19 20  4  0  0  0  0
 20 21  4  0  0  0  0
 22 23  4  0  0  0  0
 24 25  4  0  0  0  0
 24 31  4  0  0  0  0
 25 26  4  0  0  0  0
 26 27  4  0  0  0  0
 27 28  1  0  0  0  0
 27 31  4  0  0  0  0
 28 29  1  0  0  0  0
 28 30  1  0  0  0  0
 31 32  4  0  0  0  0
 19 33  1  0  0  0  0
 20 34  1  0  0  0  0
  1 35  1  0  0  0  0
  1 36  1  0  0  0  0
  1 37  1  0  0  0  0
  3 38  1  1  0  0  0
 10 39  1  0  0  0  0
 13 40  1  0  0  0  0
 29 41  1  0  0  0  0
 29 42  1  0  0  0  0
 29 43  1  0  0  0  0
 30 44  1  0  0  0  0
 30 45  1  0  0  0  0
 30 46  1  0  0  0  0
  2 47  1  0  0  0  0
  2 48  1  0  0  0  0
  6 49  1  0  0  0  0
 26 50  1  0  0  0  0
 28 51  1  0  0  0  0
 11 52  1  0  0  0  0
 11 53  1  0  0  0  0
 23 54  1  0  0  0  0
  4 55  1  0  0  0  0
  4 56  1  0  0  0  0
 18 57  1  0  0  0  0
 17 58  1  0  0  0  0
 14 59  1  0  0  0  0
 22 60  1  0  0  0  0
  5 61  1  0  0  0  0
M  END
> <Molecule ChEMBL ID>
CHEMBL518800

> <Class(50)>
1

> <Class(80)>
1

>  <salt>
false

>  <StandardizerResult>
Tautomerize (ID: Tautomerize)
Transform (ID: Transform NO2 (1))
Aromatize (ID: Aromatize)
Wedge Clean (ID: Wedge Clean)
Clean 2D (ID: Clean2D)

$$$$
CHEMBL65
  Mrv2010 08032110442D          

 42 46  0  0  1  0            999 V2000
    0.7846   -0.5146    0.0000 C   0  0  0  0  0  0  0  0  0  0  0  0
    1.2925   -1.1647    0.0000 C   0  0  0  0  0  0  0  0  0  0  0  0
    0.9834   -1.9297    0.0000 C   0  0  0  0  0  0  0  0  0  0  0  0
    0.2838   -1.4925    0.0000 O   0  0  0  0  0  0  0  0  0  0  0  0
    1.7904   -2.1012    0.0000 C   0  0  0  0  0  0  0  0  0  0  0  0
    2.3425   -1.4881    0.0000 O   0  0  0  0  0  0  0  0  0  0  0  0
    2.0454   -2.8858    0.0000 O   0  0  0  0  0  0  0  0  0  0  0  0
    1.4933   -3.4989    0.0000 C   0  0  0  0  0  0  0  0  0  0  0  0
    0.6864   -3.3274    0.0000 C   0  0  0  0  0  0  0  0  0  0  0  0
    0.4314   -2.5428    0.0000 C   0  0  0  0  0  0  0  0  0  0  0  0
   -0.3756   -2.3712    0.0000 C   0  0  0  0  0  0  0  0  0  0  0  0
   -0.9276   -2.9843    0.0000 C   0  0  0  0  0  0  0  0  0  0  0  0
   -0.6726   -3.7689    0.0000 N   0  0  0  0  0  0  0  0  0  0  0  0
    0.1343   -3.9405    0.0000 C   0  0  0  0  0  0  0  0  0  0  0  0
    0.3893   -4.7251    0.0000 O   0  0  0  0  0  0  0  0  0  0  0  0
   -1.3401   -4.2539    0.0000 C   0  0  0  0  0  0  0  0  0  0  0  0
   -2.0075   -3.7689    0.0000 C   0  0  0  0  0  0  0  0  0  0  0  0
   -2.8145   -3.9405    0.0000 C   0  0  0  0  0  0  0  0  0  0  0  0
   -3.3665   -3.3274    0.0000 C   0  0  0  0  0  0  0  0  0  0  0  0
   -4.1735   -3.4989    0.0000 C   0  0  0  0  0  0  0  0  0  0  0  0
   -4.7255   -2.8858    0.0000 C   0  0  0  0  0  0  0  0  0  0  0  0
   -4.4706   -2.1012    0.0000 C   0  0  0  0  0  0  0  0  0  0  0  0
   -3.6636   -1.9297    0.0000 C   0  0  0  0  0  0  0  0  0  0  0  0
   -3.1116   -2.5428    0.0000 C   0  0  0  0  0  0  0  0  0  0  0  0
   -2.3046   -2.3712    0.0000 N   0  0  0  0  0  0  0  0  0  0  0  0
   -1.7526   -2.9843    0.0000 C   0  0  0  0  0  0  0  0  0  0  0  0
    1.3690   -4.3145    0.0000 H   0  0  0  0  0  0  0  0  0  0  0  0
    2.0733   -4.0857    0.0000 H   0  0  0  0  0  0  0  0  0  0  0  0
   -3.4087   -1.1450    0.0000 H   0  0  0  0  0  0  0  0  0  0  0  0
    2.0741   -1.4288    0.0000 H   0  0  0  0  0  0  0  0  0  0  0  0
    1.9710   -0.6955    0.0000 H   0  0  0  0  0  0  0  0  0  0  0  0
    1.4347   -0.0067    0.0000 H   0  0  0  0  0  0  0  0  0  0  0  0
    0.2767    0.1355    0.0000 H   0  0  0  0  0  0  0  0  0  0  0  0
    0.1345   -1.0225    0.0000 H   0  0  0  0  0  0  0  0  0  0  0  0
   -5.0226   -1.4881    0.0000 H   0  0  0  0  0  0  0  0  0  0  0  0
   -1.1427   -2.0677    0.0000 H   0  0  0  0  0  0  0  0  0  0  0  0
   -4.4284   -4.2835    0.0000 H   0  0  0  0  0  0  0  0  0  0  0  0
   -0.3679   -1.9983    0.0000 H   0  0  0  0  0  0  0  0  0  0  0  0
   -1.7274   -4.9823    0.0000 H   0  0  0  0  0  0  0  0  0  0  0  0
   -0.9528   -4.9823    0.0000 H   0  0  0  0  0  0  0  0  0  0  0  0
   -5.5325   -3.0573    0.0000 H   0  0  0  0  0  0  0  0  0  0  0  0
   -3.0694   -4.7251    0.0000 H   0  0  0  0  0  0  0  0  0  0  0  0
  1  2  1  0  0  0  0
  2  3  1  0  0  0  0
  3  4  1  0  0  0  0
  3  5  1  0  0  0  0
  3 10  1  0  0  0  0
  5  6  2  0  0  0  0
  5  7  1  0  0  0  0
  7  8  1  0  0  0  0
  8  9  1  0  0  0  0
  9 10  2  0  0  0  0
  9 14  1  0  0  0  0
 10 11  1  0  0  0  0
 11 12  2  0  0  0  0
 12 13  1  0  0  0  0
 12 26  1  0  0  0  0
 13 14  1  0  0  0  0
 13 16  1  0  0  0  0
 14 15  2  0  0  0  0
 16 17  1  0  0  0  0
 17 18  4  0  0  0  0
 17 26  4  0  0  0  0
 18 19  4  0  0  0  0
 19 20  4  0  0  0  0
 19 24  4  0  0  0  0
 20 21  4  0  0  0  0
 21 22  4  0  0  0  0
 22 23  4  0  0  0  0
 23 24  4  0  0  0  0
 24 25  4  0  0  0  0
 25 26  4  0  0  0  0
  8 27  1  0  0  0  0
  8 28  1  0  0  0  0
 23 29  1  0  0  0  0
  2 30  1  0  0  0  0
  2 31  1  0  0  0  0
  1 32  1  0  0  0  0
  1 33  1  0  0  0  0
  1 34  1  0  0  0  0
 22 35  1  0  0  0  0
 11 36  1  0  0  0  0
 20 37  1  0  0  0  0
  4 38  1  0  0  0  0
 16 39  1  0  0  0  0
 16 40  1  0  0  0  0
 21 41  1  0  0  0  0
 18 42  1  0  0  0  0
M  END
> <Molecule ChEMBL ID>
CHEMBL65

> <Class(50)>
1

> <Class(80)>
1

>  <salt>
false

>  <StandardizerResult>
Tautomerize (ID: Tautomerize)
Transform (ID: Transform NO2 (1))
Aromatize (ID: Aromatize)
Wedge Clean (ID: Wedge Clean)
Clean 2D (ID: Clean2D)

$$$$
CHEMBL3989759
  Mrv2010 08032110442D          

 54 59  0  0  1  0            999 V2000
    2.9959    5.4336    0.0000 C   0  0  0  0  0  0  0  0  0  0  0  0
    3.5038    4.7835    0.0000 C   0  0  0  0  0  0  0  0  0  0  0  0
    3.1948    4.0186    0.0000 C   0  0  0  0  0  0  0  0  0  0  0  0
    2.4951    4.4558    0.0000 O   0  0  0  0  0  0  0  0  0  0  0  0
    4.0018    3.8471    0.0000 C   0  0  0  0  0  0  0  0  0  0  0  0
    4.5538    4.4602    0.0000 O   0  0  0  0  0  0  0  0  0  0  0  0
    4.2567    3.0624    0.0000 O   0  0  0  0  0  0  0  0  0  0  0  0
    3.7047    2.4494    0.0000 C   0  0  0  0  0  0  0  0  0  0  0  0
    2.8977    2.6209    0.0000 C   0  0  0  0  0  0  0  0  0  0  0  0
    2.6428    3.4055    0.0000 C   0  0  0  0  0  0  0  0  0  0  0  0
    1.8358    3.5770    0.0000 C   0  0  0  0  0  0  0  0  0  0  0  0
    1.2837    2.9639    0.0000 C   0  0  0  0  0  0  0  0  0  0  0  0
    1.5387    2.1793    0.0000 N   0  0  0  0  0  0  0  0  0  0  0  0
    2.3457    2.0078    0.0000 C   0  0  0  0  0  0  0  0  0  0  0  0
    2.6006    1.2232    0.0000 O   0  0  0  0  0  0  0  0  0  0  0  0
    0.8712    1.6944    0.0000 C   0  0  0  0  0  0  0  0  0  0  0  0
    0.2038    2.1793    0.0000 C   0  0  0  0  0  0  0  0  0  0  0  0
    0.4587    2.9639    0.0000 C   0  0  0  0  0  0  0  0  0  0  0  0
   -0.0933    3.5770    0.0000 N   0  0  0  0  0  0  0  0  0  0  0  0
   -0.9003    3.4055    0.0000 C   0  0  0  0  0  0  0  0  0  0  0  0
   -1.4523    4.0186    0.0000 C   0  0  0  0  0  0  0  0  0  0  0  0
   -2.2593    3.8471    0.0000 C   0  0  0  0  0  0  0  0  0  0  0  0
   -2.8113    4.4602    0.0000 F   0  0  0  0  0  0  0  0  0  0  0  0
   -2.5142    3.0624    0.0000 C   0  0  0  0  0  0  0  0  0  0  0  0
   -3.3212    2.8909    0.0000 C   0  0  0  0  0  0  0  0  0  0  0  0
   -1.9622    2.4494    0.0000 C   0  0  0  0  0  0  0  0  0  0  0  0
   -1.1552    2.6209    0.0000 C   0  0  0  0  0  0  0  0  0  0  0  0
   -0.6032    2.0078    0.0000 C   0  0  0  0  0  0  0  0  0  0  0  0
   -0.8581    1.2232    0.0000 C   0  0  0  0  0  0  0  0  0  0  0  0
   -0.3061    0.6101    0.0000 N   0  0  0  0  0  0  0  0  0  0  0  0
   -1.6651    1.0516    0.0000 C   0  0  0  0  0  0  0  0  0  0  0  0
   -2.2171    1.6647    0.0000 C   0  0  0  0  0  0  0  0  0  0  0  0
   -0.3526   -0.2136    0.0000 H   0  0  0  0  0  0  0  0  0  0  0  0
    0.2185   -0.0266    0.0000 H   0  0  0  0  0  0  0  0  0  0  0  0
   -1.1974    4.8032    0.0000 H   0  0  0  0  0  0  0  0  0  0  0  0
    1.8434    3.9500    0.0000 H   0  0  0  0  0  0  0  0  0  0  0  0
   -2.8841    2.1503    0.0000 H   0  0  0  0  0  0  0  0  0  0  0  0
   -3.0389    1.5920    0.0000 H   0  0  0  0  0  0  0  0  0  0  0  0
    4.2854    4.5195    0.0000 H   0  0  0  0  0  0  0  0  0  0  0  0
    4.1824    5.2528    0.0000 H   0  0  0  0  0  0  0  0  0  0  0  0
    3.5803    1.6338    0.0000 H   0  0  0  0  0  0  0  0  0  0  0  0
    4.2846    1.8626    0.0000 H   0  0  0  0  0  0  0  0  0  0  0  0
    0.4839    0.9660    0.0000 H   0  0  0  0  0  0  0  0  0  0  0  0
    1.2586    0.9660    0.0000 H   0  0  0  0  0  0  0  0  0  0  0  0
    1.0686    3.8805    0.0000 H   0  0  0  0  0  0  0  0  0  0  0  0
   -3.4927    3.6979    0.0000 H   0  0  0  0  0  0  0  0  0  0  0  0
   -4.1281    2.7194    0.0000 H   0  0  0  0  0  0  0  0  0  0  0  0
   -3.1496    2.0839    0.0000 H   0  0  0  0  0  0  0  0  0  0  0  0
    3.6460    5.9416    0.0000 H   0  0  0  0  0  0  0  0  0  0  0  0
    2.4880    6.0837    0.0000 H   0  0  0  0  0  0  0  0  0  0  0  0
    2.3458    4.9257    0.0000 H   0  0  0  0  0  0  0  0  0  0  0  0
   -2.4300    0.7426    0.0000 H   0  0  0  0  0  0  0  0  0  0  0  0
   -2.0524    0.3232    0.0000 H   0  0  0  0  0  0  0  0  0  0  0  0
   -1.1130    0.4385    0.0000 H   0  0  0  0  0  0  0  0  0  0  0  0
  1  2  1  0  0  0  0
  2  3  1  0  0  0  0
  3  4  1  0  0  0  0
  3  5  1  0  0  0  0
  3 10  1  0  0  0  0
  5  6  2  0  0  0  0
  5  7  1  0  0  0  0
  7  8  1  0  0  0  0
  8  9  1  0  0  0  0
  9 10  2  0  0  0  0
  9 14  1  0  0  0  0
 10 11  1  0  0  0  0
 11 12  2  0  0  0  0
 12 13  1  0  0  0  0
 12 18  1  0  0  0  0
 13 14  1  0  0  0  0
 13 16  1  0  0  0  0
 14 15  2  0  0  0  0
 16 17  1  0  0  0  0
 17 18  4  0  0  0  0
 17 28  4  0  0  0  0
 18 19  4  0  0  0  0
 19 20  4  0  0  0  0
 20 21  4  0  0  0  0
 20 27  4  0  0  0  0
 21 22  4  0  0  0  0
 22 23  1  0  0  0  0
 22 24  4  0  0  0  0
 24 25  1  0  0  0  0
 24 26  4  0  0  0  0
 26 27  4  0  0  0  0
 26 32  1  0  0  0  0
 27 28  4  0  0  0  0
 28 29  1  0  0  0  0
 29 30  1  0  0  0  0
 29 31  1  0  0  0  0
 31 32  1  0  0  0  0
 30 33  1  0  0  0  0
 30 34  1  0  0  0  0
 21 35  1  0  0  0  0
  4 36  1  0  0  0  0
 32 37  1  0  0  0  0
 32 38  1  0  0  0  0
  2 39  1  0  0  0  0
  2 40  1  0  0  0  0
  8 41  1  0  0  0  0
  8 42  1  0  0  0  0
 16 43  1  0  0  0  0
 16 44  1  0  0  0  0
 11 45  1  0  0  0  0
 25 46  1  0  0  0  0
 25 47  1  0  0  0  0
 25 48  1  0  0  0  0
  1 49  1  0  0  0  0
  1 50  1  0  0  0  0
  1 51  1  0  0  0  0
 31 52  1  0  0  0  0
 31 53  1  0  0  0  0
 29 54  1  0  0  0  0
M  END
> <Molecule ChEMBL ID>
CHEMBL3989759

> <Class(50)>
1

> <Class(80)>
1

>  <salt>
true

>  <StandardizerResult>
Tautomerize (ID: Tautomerize)
Transform (ID: Transform NO2 (1))
Aromatize (ID: Aromatize)
Wedge Clean (ID: Wedge Clean)
Clean 2D (ID: Clean2D)

$$$$
CHEMBL582355
  Mrv2010 08032110442D          

 34 36  0  0  0  0            999 V2000
   -3.6485   -0.9593    0.0000 C   0  0  0  0  0  0  0  0  0  0  0  0
   -2.9341   -0.5468    0.0000 C   0  0  0  0  0  0  0  0  0  0  0  0
   -2.9341    0.2782    0.0000 O   0  0  0  0  0  0  0  0  0  0  0  0
   -2.2196    0.6907    0.0000 C   0  0  0  0  0  0  0  0  0  0  0  0
   -2.2196    1.5157    0.0000 C   0  0  0  0  0  0  0  0  0  0  0  0
   -1.5051    1.9282    0.0000 C   0  0  0  0  0  0  0  0  0  0  0  0
   -0.7907    1.5157    0.0000 C   0  0  0  0  0  0  0  0  0  0  0  0
   -0.0762    1.9282    0.0000 N   0  0  0  0  0  0  0  0  0  0  0  0
    0.6383    1.5157    0.0000 C   0  0  0  0  0  0  0  0  0  0  0  0
    1.3528    1.9282    0.0000 C   0  0  0  0  0  0  0  0  0  0  0  0
    2.0672    1.5157    0.0000 C   0  0  0  0  0  0  0  0  0  0  0  0
    2.7817    1.9282    0.0000 N   0  0  0  0  0  0  0  0  0  0  0  0
    2.0672    0.6907    0.0000 C   0  0  0  0  0  0  0  0  0  0  0  0
    1.3528    0.2782    0.0000 C   0  0  0  0  0  0  0  0  0  0  0  0
    0.6383    0.6907    0.0000 C   0  0  0  0  0  0  0  0  0  0  0  0
   -0.0762    0.2782    0.0000 C   0  0  0  0  0  0  0  0  0  0  0  0
   -0.0762   -0.5468    0.0000 N   0  0  0  0  0  0  0  0  0  0  0  0
   -0.7907    0.6907    0.0000 C   0  0  0  0  0  0  0  0  0  0  0  0
   -1.5051    0.2782    0.0000 C   0  0  0  0  0  0  0  0  0  0  0  0
    1.3528   -0.5468    0.0000 H   0  0  0  0  0  0  0  0  0  0  0  0
    2.7817    0.2782    0.0000 H   0  0  0  0  0  0  0  0  0  0  0  0
   -1.5051    2.7532    0.0000 H   0  0  0  0  0  0  0  0  0  0  0  0
    3.4962    1.5157    0.0000 H   0  0  0  0  0  0  0  0  0  0  0  0
    2.7817    2.7532    0.0000 H   0  0  0  0  0  0  0  0  0  0  0  0
   -2.9341    1.9282    0.0000 H   0  0  0  0  0  0  0  0  0  0  0  0
   -0.7907   -0.9593    0.0000 H   0  0  0  0  0  0  0  0  0  0  0  0
    0.6383   -0.9593    0.0000 H   0  0  0  0  0  0  0  0  0  0  0  0
   -4.0610   -0.2448    0.0000 H   0  0  0  0  0  0  0  0  0  0  0  0
   -4.3630   -1.3718    0.0000 H   0  0  0  0  0  0  0  0  0  0  0  0
   -3.2360   -1.6737    0.0000 H   0  0  0  0  0  0  0  0  0  0  0  0
   -1.5051   -0.5468    0.0000 H   0  0  0  0  0  0  0  0  0  0  0  0
   -2.4807   -1.2360    0.0000 H   0  0  0  0  0  0  0  0  0  0  0  0
   -2.1105   -0.5947    0.0000 H   0  0  0  0  0  0  0  0  0  0  0  0
    1.3528    2.7532    0.0000 H   0  0  0  0  0  0  0  0  0  0  0  0
  1  2  1  0  0  0  0
  2  3  1  0  0  0  0
  3  4  1  0  0  0  0
  4  5  4  0  0  0  0
  4 19  4  0  0  0  0
  5  6  4  0  0  0  0
  6  7  4  0  0  0  0
  7  8  4  0  0  0  0
  7 18  4  0  0  0  0
  8  9  4  0  0  0  0
  9 10  4  0  0  0  0
  9 15  4  0  0  0  0
 10 11  4  0  0  0  0
 11 12  1  0  0  0  0
 11 13  4  0  0  0  0
 13 14  4  0  0  0  0
 14 15  4  0  0  0  0
 15 16  4  0  0  0  0
 16 17  1  0  0  0  0
 16 18  4  0  0  0  0
 18 19  4  0  0  0  0
 14 20  1  0  0  0  0
 13 21  1  0  0  0  0
  6 22  1  0  0  0  0
 12 23  1  0  0  0  0
 12 24  1  0  0  0  0
  5 25  1  0  0  0  0
 17 26  1  0  0  0  0
 17 27  1  0  0  0  0
  1 28  1  0  0  0  0
  1 29  1  0  0  0  0
  1 30  1  0  0  0  0
 19 31  1  0  0  0  0
  2 32  1  0  0  0  0
  2 33  1  0  0  0  0
 10 34  1  0  0  0  0
M  END
> <Molecule ChEMBL ID>
CHEMBL582355

> <Class(50)>
1

> <Class(80)>
1

>  <salt>
true

>  <StandardizerResult>
Tautomerize (ID: Tautomerize)
Neutralize (ID: Neutralize)
Aromatize (ID: Aromatize)
Wedge Clean (ID: Wedge Clean)
Clean 2D (ID: Clean2D)

$$$$
CHEMBL444186
  Mrv2010 08032110442D          

 35 36  0  0  1  0            999 V2000
   -0.8834   -0.5152    0.0000 C   0  0  0  0  0  0  0  0  0  0  0  0
   -0.1689   -0.9277    0.0000 C   0  0  1  0  0  0  0  0  0  0  0  0
   -0.1689   -1.7527    0.0000 C   0  0  0  0  0  0  0  0  0  0  0  0
   -0.8834   -2.1652    0.0000 N   0  0  0  0  0  0  0  0  0  0  0  0
   -0.8834   -2.9902    0.0000 C   0  0  0  0  0  0  0  0  0  0  0  0
   -1.5979   -3.4027    0.0000 C   0  0  0  0  0  0  0  0  0  0  0  0
   -1.5979   -4.2277    0.0000 O   0  0  0  0  0  0  0  0  0  0  0  0
   -2.3124   -2.9902    0.0000 N   0  0  0  0  0  0  0  0  0  0  0  0
   -2.3124   -2.1652    0.0000 C   0  0  0  0  0  0  0  0  0  0  0  0
   -3.0268   -1.7527    0.0000 O   0  0  0  0  0  0  0  0  0  0  0  0
   -1.5979   -1.7527    0.0000 C   0  0  0  0  0  0  0  0  0  0  0  0
    0.5455   -0.5152    0.0000 N   0  0  0  0  0  0  0  0  0  0  0  0
    0.5455    0.3098    0.0000 C   0  0  0  0  0  0  0  0  0  0  0  0
    1.2600    0.7223    0.0000 C   0  0  0  0  0  0  0  0  0  0  0  0
    1.2600    1.5473    0.0000 O   0  0  0  0  0  0  0  0  0  0  0  0
    1.9745    0.3098    0.0000 N   0  0  0  0  0  0  0  0  0  0  0  0
    1.9745   -0.5152    0.0000 C   0  0  0  0  0  0  0  0  0  0  0  0
    2.6889   -0.9277    0.0000 O   0  0  0  0  0  0  0  0  0  0  0  0
    1.2600   -0.9277    0.0000 C   0  0  0  0  0  0  0  0  0  0  0  0
   -2.1812   -1.1693    0.0000 H   0  0  0  0  0  0  0  0  0  0  0  0
   -1.5979   -2.5777    0.0000 H   0  0  0  0  0  0  0  0  0  0  0  0
    2.6889    0.7223    0.0000 H   0  0  0  0  0  0  0  0  0  0  0  0
   -0.8834   -1.3402    0.0000 H   0  0  0  0  0  0  0  0  0  0  0  0
    0.8897   -1.6649    0.0000 H   0  0  0  0  0  0  0  0  0  0  0  0
    1.6303   -1.6649    0.0000 H   0  0  0  0  0  0  0  0  0  0  0  0
   -0.4709    0.1993    0.0000 H   0  0  0  0  0  0  0  0  0  0  0  0
   -1.5979   -0.1027    0.0000 H   0  0  0  0  0  0  0  0  0  0  0  0
   -1.2959   -1.2296    0.0000 H   0  0  0  0  0  0  0  0  0  0  0  0
   -0.4301   -3.6794    0.0000 H   0  0  0  0  0  0  0  0  0  0  0  0
   -0.0598   -3.0381    0.0000 H   0  0  0  0  0  0  0  0  0  0  0  0
    0.2844   -2.4419    0.0000 H   0  0  0  0  0  0  0  0  0  0  0  0
    0.6547   -1.8006    0.0000 H   0  0  0  0  0  0  0  0  0  0  0  0
    0.0922    0.9991    0.0000 H   0  0  0  0  0  0  0  0  0  0  0  0
   -0.2781    0.3578    0.0000 H   0  0  0  0  0  0  0  0  0  0  0  0
   -3.0268   -3.4027    0.0000 H   0  0  0  0  0  0  0  0  0  0  0  0
  2  1  1  0  0  0  0
  2  3  1  0  0  0  0
  2 12  1  0  0  0  0
  3  4  1  0  0  0  0
  4  5  1  0  0  0  0
  4 11  1  0  0  0  0
  5  6  1  0  0  0  0
  6  7  2  0  0  0  0
  6  8  1  0  0  0  0
  8  9  1  0  0  0  0
  9 10  2  0  0  0  0
  9 11  1  0  0  0  0
 12 13  1  0  0  0  0
 12 19  1  0  0  0  0
 13 14  1  0  0  0  0
 14 15  2  0  0  0  0
 14 16  1  0  0  0  0
 16 17  1  0  0  0  0
 17 18  2  0  0  0  0
 17 19  1  0  0  0  0
 11 20  1  0  0  0  0
 11 21  1  0  0  0  0
 16 22  1  0  0  0  0
  2 23  1  1  0  0  0
 19 24  1  0  0  0  0
 19 25  1  0  0  0  0
  1 26  1  0  0  0  0
  1 27  1  0  0  0  0
  1 28  1  0  0  0  0
  5 29  1  0  0  0  0
  5 30  1  0  0  0  0
  3 31  1  0  0  0  0
  3 32  1  0  0  0  0
 13 33  1  0  0  0  0
 13 34  1  0  0  0  0
  8 35  1  0  0  0  0
M  END
> <Molecule ChEMBL ID>
CHEMBL444186

> <Class(50)>
1

> <Class(80)>
1

>  <salt>
false

>  <StandardizerResult>
Tautomerize (ID: Tautomerize)
Transform (ID: Transform NO2 (1))
Wedge Clean (ID: Wedge Clean)
Clean 2D (ID: Clean2D)

$$$$
CHEMBL52
  Mrv2010 08032110442D          

 44 45  0  0  1  0            999 V2000
   -1.2120   -0.2450    0.0000 C   0  0  0  0  0  0  0  0  0  0  0  0
   -1.2120   -1.0700    0.0000 C   0  0  1  0  0  0  0  0  0  0  0  0
   -1.9265   -1.4825    0.0000 C   0  0  0  0  0  0  0  0  0  0  0  0
   -2.6409   -1.0700    0.0000 C   0  0  0  0  0  0  0  0  0  0  0  0
   -3.3554   -1.4825    0.0000 C   0  0  0  0  0  0  0  0  0  0  0  0
   -4.0699   -1.0700    0.0000 C   0  0  0  0  0  0  0  0  0  0  0  0
   -4.0699   -0.2450    0.0000 C   0  0  0  0  0  0  0  0  0  0  0  0
   -4.7844    0.1675    0.0000 O   0  0  0  0  0  0  0  0  0  0  0  0
   -3.3554    0.1675    0.0000 C   0  0  0  0  0  0  0  0  0  0  0  0
   -3.3554    0.9925    0.0000 O   0  0  0  0  0  0  0  0  0  0  0  0
   -2.6409   -0.2450    0.0000 C   0  0  0  0  0  0  0  0  0  0  0  0
   -0.4975   -1.4825    0.0000 C   0  0  1  0  0  0  0  0  0  0  0  0
   -0.4975   -2.3075    0.0000 C   0  0  0  0  0  0  0  0  0  0  0  0
    0.2169   -1.0700    0.0000 C   0  0  0  0  0  0  0  0  0  0  0  0
    0.9314   -1.4825    0.0000 C   0  0  0  0  0  0  0  0  0  0  0  0
    1.6459   -1.0700    0.0000 C   0  0  0  0  0  0  0  0  0  0  0  0
    2.3603   -1.4825    0.0000 C   0  0  0  0  0  0  0  0  0  0  0  0
    2.3603   -2.3075    0.0000 C   0  0  0  0  0  0  0  0  0  0  0  0
    3.0748   -2.7200    0.0000 O   0  0  0  0  0  0  0  0  0  0  0  0
    1.6459   -2.7200    0.0000 C   0  0  0  0  0  0  0  0  0  0  0  0
    1.6459   -3.5450    0.0000 O   0  0  0  0  0  0  0  0  0  0  0  0
    0.9314   -2.3075    0.0000 C   0  0  0  0  0  0  0  0  0  0  0  0
   -1.0809   -2.8908    0.0000 H   0  0  0  0  0  0  0  0  0  0  0  0
   -0.0850   -3.0219    0.0000 H   0  0  0  0  0  0  0  0  0  0  0  0
    0.2994   -2.0939    0.0000 H   0  0  0  0  0  0  0  0  0  0  0  0
    0.5915   -3.0592    0.0000 H   0  0  0  0  0  0  0  0  0  0  0  0
   -2.2967   -2.2197    0.0000 H   0  0  0  0  0  0  0  0  0  0  0  0
   -1.5562   -2.2197    0.0000 H   0  0  0  0  0  0  0  0  0  0  0  0
    1.6459   -0.2450    0.0000 H   0  0  0  0  0  0  0  0  0  0  0  0
   -1.2120   -1.8950    0.0000 H   0  0  0  0  0  0  0  0  0  0  0  0
   -0.3870   -0.2450    0.0000 H   0  0  0  0  0  0  0  0  0  0  0  0
   -1.2120    0.5800    0.0000 H   0  0  0  0  0  0  0  0  0  0  0  0
   -2.0370   -0.2450    0.0000 H   0  0  0  0  0  0  0  0  0  0  0  0
   -4.7844   -1.4825    0.0000 H   0  0  0  0  0  0  0  0  0  0  0  0
   -3.3554   -2.3075    0.0000 H   0  0  0  0  0  0  0  0  0  0  0  0
    0.9314   -3.9575    0.0000 H   0  0  0  0  0  0  0  0  0  0  0  0
   -1.9265   -0.6575    0.0000 H   0  0  0  0  0  0  0  0  0  0  0  0
   -4.7844    0.9925    0.0000 H   0  0  0  0  0  0  0  0  0  0  0  0
    0.5872   -0.3327    0.0000 H   0  0  0  0  0  0  0  0  0  0  0  0
   -0.1533   -0.3327    0.0000 H   0  0  0  0  0  0  0  0  0  0  0  0
    3.0748   -3.5450    0.0000 H   0  0  0  0  0  0  0  0  0  0  0  0
   -2.6409    1.4050    0.0000 H   0  0  0  0  0  0  0  0  0  0  0  0
   -2.4274    0.5519    0.0000 H   0  0  0  0  0  0  0  0  0  0  0  0
    3.0748   -1.0700    0.0000 H   0  0  0  0  0  0  0  0  0  0  0  0
  2  1  1  0  0  0  0
  2  3  1  0  0  0  0
  2 12  1  0  0  0  0
  3  4  1  0  0  0  0
  4  5  4  0  0  0  0
  4 11  4  0  0  0  0
  5  6  4  0  0  0  0
  6  7  4  0  0  0  0
  7  8  1  0  0  0  0
  7  9  4  0  0  0  0
  9 10  1  0  0  0  0
  9 11  4  0  0  0  0
 12 13  1  0  0  0  0
 12 14  1  0  0  0  0
 14 15  1  0  0  0  0
 15 16  4  0  0  0  0
 15 22  4  0  0  0  0
 16 17  4  0  0  0  0
 17 18  4  0  0  0  0
 18 19  1  0  0  0  0
 18 20  4  0  0  0  0
 20 21  1  0  0  0  0
 20 22  4  0  0  0  0
 13 23  1  0  0  0  0
 13 24  1  0  0  0  0
 13 25  1  0  0  0  0
 22 26  1  0  0  0  0
  3 27  1  0  0  0  0
  3 28  1  0  0  0  0
 16 29  1  0  0  0  0
 12 30  1  1  0  0  0
  1 31  1  0  0  0  0
  1 32  1  0  0  0  0
  1 33  1  0  0  0  0
  6 34  1  0  0  0  0
  5 35  1  0  0  0  0
 21 36  1  0  0  0  0
  2 37  1  1  0  0  0
  8 38  1  0  0  0  0
 14 39  1  0  0  0  0
 14 40  1  0  0  0  0
 19 41  1  0  0  0  0
 10 42  1  0  0  0  0
 11 43  1  0  0  0  0
 17 44  1  0  0  0  0
M  END
> <Molecule ChEMBL ID>
CHEMBL52

> <Class(50)>
1

> <Class(80)>
1

>  <salt>
false

>  <StandardizerResult>
Tautomerize (ID: Tautomerize)
Transform (ID: Transform NO2 (1))
Aromatize (ID: Aromatize)
Wedge Clean (ID: Wedge Clean)
Clean 2D (ID: Clean2D)

$$$$
CHEMBL596674
  Mrv2010 08032110442D          

 50 52  0  0  1  0            999 V2000
   -0.2986   -3.3031    0.0000 C   0  0  0  0  0  0  0  0  0  0  0  0
   -1.0131   -2.8906    0.0000 C   0  0  0  0  0  0  0  0  0  0  0  0
   -1.7276   -3.3031    0.0000 C   0  0  0  0  0  0  0  0  0  0  0  0
   -1.0131   -2.0656    0.0000 N   0  0  0  0  0  0  0  0  0  0  0  0
   -1.7276   -1.6531    0.0000 C   0  0  0  0  0  0  0  0  0  0  0  0
   -2.4420   -2.0656    0.0000 C   0  0  0  0  0  0  0  0  0  0  0  0
   -3.1565   -1.6531    0.0000 C   0  0  0  0  0  0  0  0  0  0  0  0
   -3.1565   -0.8281    0.0000 O   0  0  0  0  0  0  0  0  0  0  0  0
   -3.8710   -2.0656    0.0000 C   0  0  0  0  0  0  0  0  0  0  0  0
   -3.8710   -2.8906    0.0000 C   0  0  0  0  0  0  0  0  0  0  0  0
   -4.5854   -3.3031    0.0000 C   0  0  0  0  0  0  0  0  0  0  0  0
   -5.2999   -2.8906    0.0000 C   0  0  0  0  0  0  0  0  0  0  0  0
   -6.0144   -3.3031    0.0000 C   0  0  0  0  0  0  0  0  0  0  0  0
   -6.7289   -2.8906    0.0000 C   0  0  0  0  0  0  0  0  0  0  0  0
   -6.7289   -2.0656    0.0000 C   0  0  0  0  0  0  0  0  0  0  0  0
   -6.0144   -1.6531    0.0000 C   0  0  0  0  0  0  0  0  0  0  0  0
   -5.2999   -2.0656    0.0000 C   0  0  0  0  0  0  0  0  0  0  0  0
   -4.5854   -1.6531    0.0000 C   0  0  0  0  0  0  0  0  0  0  0  0
   -0.2986   -1.6531    0.0000 C   0  0  0  0  0  0  0  0  0  0  0  0
    0.4159   -2.0656    0.0000 C   0  0  0  0  0  0  0  0  0  0  0  0
    1.1303   -1.6531    0.0000 C   0  0  0  0  0  0  0  0  0  0  0  0
    1.8448   -2.0656    0.0000 C   0  0  0  0  0  0  0  0  0  0  0  0
    1.8448   -2.8906    0.0000 C   0  0  0  0  0  0  0  0  0  0  0  0
    1.1303   -3.3031    0.0000 C   0  0  0  0  0  0  0  0  0  0  0  0
    0.4159   -2.8906    0.0000 C   0  0  0  0  0  0  0  0  0  0  0  0
   -6.0144   -0.8281    0.0000 H   0  0  0  0  0  0  0  0  0  0  0  0
    1.5428   -4.0176    0.0000 H   0  0  0  0  0  0  0  0  0  0  0  0
   -0.2986   -2.4781    0.0000 H   0  0  0  0  0  0  0  0  0  0  0  0
   -2.4420   -2.8906    0.0000 H   0  0  0  0  0  0  0  0  0  0  0  0
   -2.4420   -3.7156    0.0000 H   0  0  0  0  0  0  0  0  0  0  0  0
   -1.7276   -4.1281    0.0000 H   0  0  0  0  0  0  0  0  0  0  0  0
    0.0716   -0.9158    0.0000 H   0  0  0  0  0  0  0  0  0  0  0  0
   -0.6689   -0.9158    0.0000 H   0  0  0  0  0  0  0  0  0  0  0  0
   -1.0131   -3.7156    0.0000 H   0  0  0  0  0  0  0  0  0  0  0  0
   -0.2986   -4.1281    0.0000 H   0  0  0  0  0  0  0  0  0  0  0  0
    0.4159   -3.7156    0.0000 H   0  0  0  0  0  0  0  0  0  0  0  0
   -4.5854   -0.8281    0.0000 H   0  0  0  0  0  0  0  0  0  0  0  0
   -1.7276   -2.4781    0.0000 H   0  0  0  0  0  0  0  0  0  0  0  0
   -7.4433   -3.3031    0.0000 H   0  0  0  0  0  0  0  0  0  0  0  0
   -4.5854   -4.1281    0.0000 H   0  0  0  0  0  0  0  0  0  0  0  0
    2.5593   -3.3031    0.0000 H   0  0  0  0  0  0  0  0  0  0  0  0
    1.1303   -0.8281    0.0000 H   0  0  0  0  0  0  0  0  0  0  0  0
   -7.4433   -1.6531    0.0000 H   0  0  0  0  0  0  0  0  0  0  0  0
    2.5593   -1.6531    0.0000 H   0  0  0  0  0  0  0  0  0  0  0  0
   -1.3573   -0.9158    0.0000 H   0  0  0  0  0  0  0  0  0  0  0  0
   -2.0978   -0.9158    0.0000 H   0  0  0  0  0  0  0  0  0  0  0  0
   -6.0144   -4.1281    0.0000 H   0  0  0  0  0  0  0  0  0  0  0  0
   -3.4585   -3.6051    0.0000 H   0  0  0  0  0  0  0  0  0  0  0  0
   -3.1565   -2.4781    0.0000 H   0  0  0  0  0  0  0  0  0  0  0  0
   -2.4420   -1.2406    0.0000 H   0  0  0  0  0  0  0  0  0  0  0  0
  1  2  1  0  0  0  0
  2  3  1  0  0  0  0
  2  4  1  0  0  0  0
  4  5  1  0  0  0  0
  4 19  1  0  0  0  0
  5  6  1  0  0  0  0
  6  7  1  0  0  0  0
  7  8  2  0  0  0  0
  7  9  1  0  0  0  0
  9 10  4  0  0  0  0
  9 18  4  0  0  0  0
 10 11  4  0  0  0  0
 11 12  4  0  0  0  0
 12 13  4  0  0  0  0
 12 17  4  0  0  0  0
 13 14  4  0  0  0  0
 14 15  4  0  0  0  0
 15 16  4  0  0  0  0
 16 17  4  0  0  0  0
 17 18  4  0  0  0  0
 19 20  1  0  0  0  0
 20 21  4  0  0  0  0
 20 25  4  0  0  0  0
 21 22  4  0  0  0  0
 22 23  4  0  0  0  0
 23 24  4  0  0  0  0
 24 25  4  0  0  0  0
 16 26  1  0  0  0  0
 24 27  1  0  0  0  0
 25 28  1  0  0  0  0
  3 29  1  0  0  0  0
  3 30  1  0  0  0  0
  3 31  1  0  0  0  0
 19 32  1  0  0  0  0
 19 33  1  0  0  0  0
  1 34  1  0  0  0  0
  1 35  1  0  0  0  0
  1 36  1  0  0  0  0
 18 37  1  0  0  0  0
  2 38  1  0  0  0  0
 14 39  1  0  0  0  0
 11 40  1  0  0  0  0
 23 41  1  0  0  0  0
 21 42  1  0  0  0  0
 15 43  1  0  0  0  0
 22 44  1  0  0  0  0
  5 45  1  0  0  0  0
  5 46  1  0  0  0  0
 13 47  1  0  0  0  0
 10 48  1  0  0  0  0
  6 49  1  0  0  0  0
  6 50  1  0  0  0  0
M  END
> <Molecule ChEMBL ID>
CHEMBL596674

> <Class(50)>
1

> <Class(80)>
1

>  <salt>
false

>  <StandardizerResult>
Tautomerize (ID: Tautomerize)
Transform (ID: Transform NO2 (1))
Aromatize (ID: Aromatize)
Wedge Clean (ID: Wedge Clean)
Clean 2D (ID: Clean2D)

$$$$
CHEMBL1096
  Mrv2010 08032110442D          

 36 38  0  0  0  0            999 V2000
   -3.1760   -0.4768    0.0000 C   0  0  0  0  0  0  0  0  0  0  0  0
   -3.1760    0.3482    0.0000 C   0  0  0  0  0  0  0  0  0  0  0  0
   -3.8904    0.7607    0.0000 C   0  0  0  0  0  0  0  0  0  0  0  0
   -2.4615    0.7607    0.0000 C   0  0  0  0  0  0  0  0  0  0  0  0
   -2.4615    1.5857    0.0000 C   0  0  0  0  0  0  0  0  0  0  0  0
   -1.7470    1.9982    0.0000 C   0  0  0  0  0  0  0  0  0  0  0  0
   -1.0325    1.5857    0.0000 C   0  0  0  0  0  0  0  0  0  0  0  0
   -0.3181    1.9982    0.0000 O   0  0  0  0  0  0  0  0  0  0  0  0
    0.3964    1.5857    0.0000 C   0  0  0  0  0  0  0  0  0  0  0  0
    1.1109    1.9982    0.0000 N   0  0  0  0  0  0  0  0  0  0  0  0
    1.8253    1.5857    0.0000 C   0  0  0  0  0  0  0  0  0  0  0  0
    2.5398    1.9982    0.0000 N   0  0  0  0  0  0  0  0  0  0  0  0
    1.8253    0.7607    0.0000 C   0  0  0  0  0  0  0  0  0  0  0  0
    2.5398    0.3482    0.0000 C   0  0  0  0  0  0  0  0  0  0  0  0
    2.5398   -0.4768    0.0000 O   0  0  0  0  0  0  0  0  0  0  0  0
    3.2543    0.7607    0.0000 O   0  0  0  0  0  0  0  0  0  0  0  0
    1.1109    0.3482    0.0000 C   0  0  0  0  0  0  0  0  0  0  0  0
    0.3964    0.7607    0.0000 C   0  0  0  0  0  0  0  0  0  0  0  0
   -0.3181    0.3482    0.0000 C   0  0  0  0  0  0  0  0  0  0  0  0
   -0.3181   -0.4768    0.0000 O   0  0  0  0  0  0  0  0  0  0  0  0
   -1.0325    0.7607    0.0000 C   0  0  0  0  0  0  0  0  0  0  0  0
   -1.7470    0.3482    0.0000 C   0  0  0  0  0  0  0  0  0  0  0  0
    1.1109   -0.4768    0.0000 H   0  0  0  0  0  0  0  0  0  0  0  0
   -2.7835    2.3452    0.0000 H   0  0  0  0  0  0  0  0  0  0  0  0
   -1.7470    2.8232    0.0000 H   0  0  0  0  0  0  0  0  0  0  0  0
   -4.0010   -0.4768    0.0000 H   0  0  0  0  0  0  0  0  0  0  0  0
   -3.1760   -1.3018    0.0000 H   0  0  0  0  0  0  0  0  0  0  0  0
   -2.3510   -0.4768    0.0000 H   0  0  0  0  0  0  0  0  0  0  0  0
    3.9688    0.3482    0.0000 H   0  0  0  0  0  0  0  0  0  0  0  0
   -3.3071    1.3440    0.0000 H   0  0  0  0  0  0  0  0  0  0  0  0
   -4.3029    1.4751    0.0000 H   0  0  0  0  0  0  0  0  0  0  0  0
   -4.6873    0.5471    0.0000 H   0  0  0  0  0  0  0  0  0  0  0  0
   -3.8904   -0.0643    0.0000 H   0  0  0  0  0  0  0  0  0  0  0  0
   -1.7470   -0.4768    0.0000 H   0  0  0  0  0  0  0  0  0  0  0  0
    3.2543    1.5857    0.0000 H   0  0  0  0  0  0  0  0  0  0  0  0
    2.5398    2.8232    0.0000 H   0  0  0  0  0  0  0  0  0  0  0  0
  1  2  1  0  0  0  0
  2  3  1  0  0  0  0
  2  4  1  0  0  0  0
  4  5  4  0  0  0  0
  4 22  4  0  0  0  0
  5  6  4  0  0  0  0
  6  7  4  0  0  0  0
  7  8  1  0  0  0  0
  7 21  4  0  0  0  0
  8  9  1  0  0  0  0
  9 10  4  0  0  0  0
  9 18  4  0  0  0  0
 10 11  4  0  0  0  0
 11 12  1  0  0  0  0
 11 13  4  0  0  0  0
 13 14  1  0  0  0  0
 13 17  4  0  0  0  0
 14 15  2  0  0  0  0
 14 16  1  0  0  0  0
 17 18  4  0  0  0  0
 18 19  1  0  0  0  0
 19 20  2  0  0  0  0
 19 21  1  0  0  0  0
 21 22  4  0  0  0  0
 17 23  1  0  0  0  0
  5 24  1  0  0  0  0
  6 25  1  0  0  0  0
  1 26  1  0  0  0  0
  1 27  1  0  0  0  0
  1 28  1  0  0  0  0
 16 29  1  0  0  0  0
  3 30  1  0  0  0  0
  3 31  1  0  0  0  0
  3 32  1  0  0  0  0
  2 33  1  0  0  0  0
 22 34  1  0  0  0  0
 12 35  1  0  0  0  0
 12 36  1  0  0  0  0
M  END
> <Molecule ChEMBL ID>
CHEMBL1096

> <Class(50)>
1

> <Class(80)>
1

>  <salt>
false

>  <StandardizerResult>
Tautomerize (ID: Tautomerize)
Neutralize (ID: Neutralize)
Aromatize (ID: Aromatize)
Wedge Clean (ID: Wedge Clean)
Clean 2D (ID: Clean2D)

$$$$
CHEMBL270299
  Mrv2010 08032110442D          

 32 32  0  0  0  0            999 V2000
    0.1415    2.4561    0.0000 C   0  0  0  0  0  0  0  0  0  0  0  0
    0.1415    1.6311    0.0000 C   0  0  0  0  0  0  0  0  0  0  0  0
   -0.6835    1.6311    0.0000 C   0  0  0  0  0  0  0  0  0  0  0  0
    0.9665    1.6311    0.0000 C   0  0  0  0  0  0  0  0  0  0  0  0
    0.1415    0.8061    0.0000 C   0  0  0  0  0  0  0  0  0  0  0  0
    0.8559    0.3936    0.0000 C   0  0  0  0  0  0  0  0  0  0  0  0
    0.8559   -0.4314    0.0000 C   0  0  0  0  0  0  0  0  0  0  0  0
    0.1415   -0.8439    0.0000 C   0  0  0  0  0  0  0  0  0  0  0  0
    0.1415   -1.6689    0.0000 S   0  0  0  0  0  0  0  0  0  0  0  0
   -0.6835   -1.6689    0.0000 O   0  0  0  0  0  0  0  0  0  0  0  0
    0.9665   -1.6689    0.0000 O   0  0  0  0  0  0  0  0  0  0  0  0
    0.1415   -2.4939    0.0000 C   0  0  0  0  0  0  0  0  0  0  0  0
   -0.5730   -2.9064    0.0000 C   0  0  0  0  0  0  0  0  0  0  0  0
   -0.5730   -3.7314    0.0000 C   0  0  0  0  0  0  0  0  0  0  0  0
   -0.5730   -4.5564    0.0000 N   0  0  0  0  0  0  0  0  0  0  0  0
   -0.5730   -0.4314    0.0000 C   0  0  0  0  0  0  0  0  0  0  0  0
   -0.5730    0.3936    0.0000 C   0  0  0  0  0  0  0  0  0  0  0  0
    0.9665    2.4561    0.0000 H   0  0  0  0  0  0  0  0  0  0  0  0
    0.1415    3.2811    0.0000 H   0  0  0  0  0  0  0  0  0  0  0  0
   -0.6835    2.4561    0.0000 H   0  0  0  0  0  0  0  0  0  0  0  0
    0.6507    0.8689    0.0000 H   0  0  0  0  0  0  0  0  0  0  0  0
    1.5498    1.0477    0.0000 H   0  0  0  0  0  0  0  0  0  0  0  0
    1.7287    1.9468    0.0000 H   0  0  0  0  0  0  0  0  0  0  0  0
    0.8559   -2.9064    0.0000 H   0  0  0  0  0  0  0  0  0  0  0  0
    1.2890   -1.1336    0.0000 H   0  0  0  0  0  0  0  0  0  0  0  0
    1.6134    0.0667    0.0000 H   0  0  0  0  0  0  0  0  0  0  0  0
   -1.3305    0.0667    0.0000 H   0  0  0  0  0  0  0  0  0  0  0  0
   -1.2875   -0.8439    0.0000 H   0  0  0  0  0  0  0  0  0  0  0  0
   -1.4457    1.9468    0.0000 H   0  0  0  0  0  0  0  0  0  0  0  0
   -1.2669    1.0477    0.0000 H   0  0  0  0  0  0  0  0  0  0  0  0
   -0.3678    0.8689    0.0000 H   0  0  0  0  0  0  0  0  0  0  0  0
   -1.2875   -2.4939    0.0000 H   0  0  0  0  0  0  0  0  0  0  0  0
  1  2  1  0  0  0  0
  2  3  1  0  0  0  0
  2  4  1  0  0  0  0
  2  5  1  0  0  0  0
  5  6  4  0  0  0  0
  5 17  4  0  0  0  0
  6  7  4  0  0  0  0
  7  8  4  0  0  0  0
  8  9  1  0  0  0  0
  8 16  4  0  0  0  0
  9 10  2  0  0  0  0
  9 11  2  0  0  0  0
  9 12  1  0  0  0  0
 12 13  2  0  0  0  0
 13 14  1  0  0  0  0
 14 15  3  0  0  0  0
 16 17  4  0  0  0  0
  1 18  1  0  0  0  0
  1 19  1  0  0  0  0
  1 20  1  0  0  0  0
  4 21  1  0  0  0  0
  4 22  1  0  0  0  0
  4 23  1  0  0  0  0
 12 24  1  0  0  0  0
  7 25  1  0  0  0  0
  6 26  1  0  0  0  0
 17 27  1  0  0  0  0
 16 28  1  0  0  0  0
  3 29  1  0  0  0  0
  3 30  1  0  0  0  0
  3 31  1  0  0  0  0
 13 32  1  0  0  0  0
M  END
> <Molecule ChEMBL ID>
CHEMBL270299

> <Class(50)>
1

> <Class(80)>
1

>  <salt>
false

>  <StandardizerResult>
Tautomerize (ID: Tautomerize)
Neutralize (ID: Neutralize)
Aromatize (ID: Aromatize)
Wedge Clean (ID: Wedge Clean)
Clean 2D (ID: Clean2D)

$$$$
CHEMBL1530581
  Mrv2010 08032110442D          

 28 30  0  0  0  0            999 V2000
    1.3625    1.2783    0.0000 C   0  0  0  0  0  0  0  0  0  0  0  0
    1.3625    0.4533    0.0000 C   0  0  0  0  0  0  0  0  0  0  0  0
    0.6481    0.0408    0.0000 C   0  0  0  0  0  0  0  0  0  0  0  0
   -0.0664    0.4533    0.0000 C   0  0  0  0  0  0  0  0  0  0  0  0
   -0.8510    0.1984    0.0000 S   0  0  0  0  0  0  0  0  0  0  0  0
   -1.3359    0.8658    0.0000 C   0  0  0  0  0  0  0  0  0  0  0  0
   -2.1609    0.8658    0.0000 S   0  0  0  0  0  0  0  0  0  0  0  0
   -2.5734    1.5803    0.0000 N   0  0  0  0  0  0  0  0  0  0  0  0
   -3.3984    1.5803    0.0000 C   0  0  0  0  0  0  0  0  0  0  0  0
   -3.8109    2.2948    0.0000 C   0  0  0  0  0  0  0  0  0  0  0  0
   -3.3984    3.0092    0.0000 O   0  0  0  0  0  0  0  0  0  0  0  0
   -2.5734    3.0092    0.0000 C   0  0  0  0  0  0  0  0  0  0  0  0
   -2.1609    2.2948    0.0000 C   0  0  0  0  0  0  0  0  0  0  0  0
   -0.8510    1.5333    0.0000 N   0  0  0  0  0  0  0  0  0  0  0  0
   -0.0664    1.2783    0.0000 C   0  0  0  0  0  0  0  0  0  0  0  0
    0.6481    1.6908    0.0000 C   0  0  0  0  0  0  0  0  0  0  0  0
   -1.4237    1.9245    0.0000 H   0  0  0  0  0  0  0  0  0  0  0  0
   -1.4237    2.6650    0.0000 H   0  0  0  0  0  0  0  0  0  0  0  0
    0.6481    2.5158    0.0000 H   0  0  0  0  0  0  0  0  0  0  0  0
    2.0770    1.6908    0.0000 H   0  0  0  0  0  0  0  0  0  0  0  0
    2.0770    0.0408    0.0000 H   0  0  0  0  0  0  0  0  0  0  0  0
    0.6481   -0.7842    0.0000 H   0  0  0  0  0  0  0  0  0  0  0  0
   -4.0877    1.1270    0.0000 H   0  0  0  0  0  0  0  0  0  0  0  0
   -3.4464    0.7567    0.0000 H   0  0  0  0  0  0  0  0  0  0  0  0
   -4.5482    2.6650    0.0000 H   0  0  0  0  0  0  0  0  0  0  0  0
   -4.5482    1.9245    0.0000 H   0  0  0  0  0  0  0  0  0  0  0  0
   -1.8842    3.4626    0.0000 H   0  0  0  0  0  0  0  0  0  0  0  0
   -2.5255    3.8328    0.0000 H   0  0  0  0  0  0  0  0  0  0  0  0
  1  2  4  0  0  0  0
  1 16  4  0  0  0  0
  2  3  4  0  0  0  0
  3  4  4  0  0  0  0
  4  5  4  0  0  0  0
  4 15  4  0  0  0  0
  5  6  4  0  0  0  0
  6  7  1  0  0  0  0
  6 14  4  0  0  0  0
  7  8  1  0  0  0  0
  8  9  1  0  0  0  0
  8 13  1  0  0  0  0
  9 10  1  0  0  0  0
 10 11  1  0  0  0  0
 11 12  1  0  0  0  0
 12 13  1  0  0  0  0
 14 15  4  0  0  0  0
 15 16  4  0  0  0  0
 13 17  1  0  0  0  0
 13 18  1  0  0  0  0
 16 19  1  0  0  0  0
  1 20  1  0  0  0  0
  2 21  1  0  0  0  0
  3 22  1  0  0  0  0
  9 23  1  0  0  0  0
  9 24  1  0  0  0  0
 10 25  1  0  0  0  0
 10 26  1  0  0  0  0
 12 27  1  0  0  0  0
 12 28  1  0  0  0  0
M  END
> <Molecule ChEMBL ID>
CHEMBL1530581

> <Class(50)>
1

> <Class(80)>
1

>  <salt>
false

>  <StandardizerResult>
Tautomerize (ID: Tautomerize)
Neutralize (ID: Neutralize)
Aromatize (ID: Aromatize)
Wedge Clean (ID: Wedge Clean)
Clean 2D (ID: Clean2D)

$$$$
CHEMBL286120
  Mrv2010 08032110442D          

 43 45  0  0  1  0            999 V2000
    2.9816   -0.6941    0.0000 C   0  0  0  0  0  0  0  0  0  0  0  0
    2.1566   -0.6941    0.0000 C   0  0  0  0  0  0  0  0  0  0  0  0
    1.7441   -1.4085    0.0000 C   0  0  0  0  0  0  0  0  0  0  0  0
    0.9191   -1.4085    0.0000 N   0  0  0  0  0  0  0  0  0  0  0  0
    0.5611   -2.1518    0.0000 C   0  0  0  0  0  0  0  0  0  0  0  0
   -0.2432   -2.3354    0.0000 C   0  0  0  0  0  0  0  0  0  0  0  0
   -0.8882   -1.8210    0.0000 C   0  0  0  0  0  0  0  0  0  0  0  0
   -1.6027   -2.2335    0.0000 C   0  0  0  0  0  0  0  0  0  0  0  0
   -2.3171   -1.8210    0.0000 C   0  0  0  0  0  0  0  0  0  0  0  0
   -3.0316   -2.2335    0.0000 O   0  0  0  0  0  0  0  0  0  0  0  0
   -2.3171   -0.9960    0.0000 C   0  0  0  0  0  0  0  0  0  0  0  0
   -3.0316   -0.5835    0.0000 O   0  0  0  0  0  0  0  0  0  0  0  0
   -1.6027   -0.5835    0.0000 C   0  0  0  0  0  0  0  0  0  0  0  0
   -0.8882   -0.9960    0.0000 C   0  0  0  0  0  0  0  0  0  0  0  0
   -0.2432   -0.4817    0.0000 C   0  0  0  0  0  0  0  0  0  0  0  0
   -0.4268    0.3227    0.0000 C   0  0  0  0  0  0  0  0  0  0  0  0
   -1.2151    0.5658    0.0000 C   0  0  0  0  0  0  0  0  0  0  0  0
   -1.3987    1.3701    0.0000 C   0  0  0  0  0  0  0  0  0  0  0  0
   -0.7939    1.9313    0.0000 C   0  0  0  0  0  0  0  0  0  0  0  0
   -0.0056    1.6881    0.0000 C   0  0  0  0  0  0  0  0  0  0  0  0
    0.1780    0.8838    0.0000 C   0  0  0  0  0  0  0  0  0  0  0  0
    0.5611   -0.6652    0.0000 C   0  0  0  0  0  0  0  0  0  0  0  0
    1.7920   -2.2321    0.0000 H   0  0  0  0  0  0  0  0  0  0  0  0
    2.4334   -1.8619    0.0000 H   0  0  0  0  0  0  0  0  0  0  0  0
   -0.7576   -2.9804    0.0000 H   0  0  0  0  0  0  0  0  0  0  0  0
   -0.0596   -3.1397    0.0000 H   0  0  0  0  0  0  0  0  0  0  0  0
   -1.0522   -0.2429    0.0000 H   0  0  0  0  0  0  0  0  0  0  0  0
   -0.9775    2.7356    0.0000 H   0  0  0  0  0  0  0  0  0  0  0  0
   -1.6027   -3.0585    0.0000 H   0  0  0  0  0  0  0  0  0  0  0  0
    1.3319   -0.3710    0.0000 H   0  0  0  0  0  0  0  0  0  0  0  0
    0.0467   -1.3103    0.0000 H   0  0  0  0  0  0  0  0  0  0  0  0
   -3.7461   -1.8210    0.0000 H   0  0  0  0  0  0  0  0  0  0  0  0
    0.9841    1.0593    0.0000 H   0  0  0  0  0  0  0  0  0  0  0  0
    0.7447   -2.9562    0.0000 H   0  0  0  0  0  0  0  0  0  0  0  0
    1.3044   -2.5098    0.0000 H   0  0  0  0  0  0  0  0  0  0  0  0
    1.7441    0.0204    0.0000 H   0  0  0  0  0  0  0  0  0  0  0  0
    0.3402    0.1017    0.0000 H   0  0  0  0  0  0  0  0  0  0  0  0
   -3.0316    0.2415    0.0000 H   0  0  0  0  0  0  0  0  0  0  0  0
    3.3941   -1.4085    0.0000 H   0  0  0  0  0  0  0  0  0  0  0  0
    3.3941    0.0204    0.0000 H   0  0  0  0  0  0  0  0  0  0  0  0
   -1.6027    0.2415    0.0000 H   0  0  0  0  0  0  0  0  0  0  0  0
   -2.1870    1.6133    0.0000 H   0  0  0  0  0  0  0  0  0  0  0  0
    0.5992    2.2493    0.0000 H   0  0  0  0  0  0  0  0  0  0  0  0
  1  2  2  0  0  0  0
  2  3  1  0  0  0  0
  3  4  1  0  0  0  0
  4  5  1  0  0  0  0
  4 22  1  0  0  0  0
  5  6  1  0  0  0  0
  6  7  1  0  0  0  0
  7  8  4  0  0  0  0
  7 14  4  0  0  0  0
  8  9  4  0  0  0  0
  9 10  1  0  0  0  0
  9 11  4  0  0  0  0
 11 12  1  0  0  0  0
 11 13  4  0  0  0  0
 13 14  4  0  0  0  0
 14 15  1  0  0  0  0
 15 16  1  0  0  0  0
 15 22  1  0  0  0  0
 16 17  4  0  0  0  0
 16 21  4  0  0  0  0
 17 18  4  0  0  0  0
 18 19  4  0  0  0  0
 19 20  4  0  0  0  0
 20 21  4  0  0  0  0
  3 23  1  0  0  0  0
  3 24  1  0  0  0  0
  6 25  1  0  0  0  0
  6 26  1  0  0  0  0
 17 27  1  0  0  0  0
 19 28  1  0  0  0  0
  8 29  1  0  0  0  0
 22 30  1  0  0  0  0
 22 31  1  0  0  0  0
 10 32  1  0  0  0  0
 21 33  1  0  0  0  0
  5 34  1  0  0  0  0
  5 35  1  0  0  0  0
  2 36  1  0  0  0  0
 15 37  1  0  0  0  0
 12 38  1  0  0  0  0
  1 39  1  0  0  0  0
  1 40  1  0  0  0  0
 13 41  1  0  0  0  0
 18 42  1  0  0  0  0
 20 43  1  0  0  0  0
M  END
> <Molecule ChEMBL ID>
CHEMBL286120

> <Class(50)>
1

> <Class(80)>
1

>  <salt>
false

>  <StandardizerResult>
Tautomerize (ID: Tautomerize)
Transform (ID: Transform NO2 (1))
Aromatize (ID: Aromatize)
Wedge Clean (ID: Wedge Clean)
Clean 2D (ID: Clean2D)

$$$$
CHEMBL1612112
  Mrv2010 08032110442D          

 58 62  0  0  1  0            999 V2000
    0.4376   -6.1093    0.0000 C   0  0  0  0  0  0  0  0  0  0  0  0
    0.6925   -5.3247    0.0000 C   0  0  0  0  0  0  0  0  0  0  0  0
    0.1405   -4.7116    0.0000 C   0  0  0  0  0  0  0  0  0  0  0  0
    0.3955   -3.9270    0.0000 N   0  0  0  0  0  0  0  0  0  0  0  0
   -0.0895   -3.2595    0.0000 C   0  0  0  0  0  0  0  0  0  0  0  0
   -0.9145   -3.2595    0.0000 N   0  0  0  0  0  0  0  0  0  0  0  0
   -1.3270   -3.9740    0.0000 S   0  0  0  0  0  0  0  0  0  0  0  0
   -0.6125   -4.3865    0.0000 O   0  0  0  0  0  0  0  0  0  0  0  0
   -2.0414   -3.5615    0.0000 O   0  0  0  0  0  0  0  0  0  0  0  0
   -1.7395   -4.6885    0.0000 C   0  0  0  0  0  0  0  0  0  0  0  0
   -1.3270   -5.4030    0.0000 C   0  0  0  0  0  0  0  0  0  0  0  0
   -1.7395   -6.1174    0.0000 C   0  0  0  0  0  0  0  0  0  0  0  0
   -2.5645   -6.1174    0.0000 C   0  0  0  0  0  0  0  0  0  0  0  0
   -2.9770   -5.4030    0.0000 C   0  0  0  0  0  0  0  0  0  0  0  0
   -2.5645   -4.6885    0.0000 C   0  0  0  0  0  0  0  0  0  0  0  0
    0.3955   -2.5921    0.0000 C   0  0  0  0  0  0  0  0  0  0  0  0
    0.1405   -1.8075    0.0000 S   0  0  0  0  0  0  0  0  0  0  0  0
    0.9251   -1.5525    0.0000 O   0  0  0  0  0  0  0  0  0  0  0  0
   -0.6441   -2.0624    0.0000 O   0  0  0  0  0  0  0  0  0  0  0  0
   -0.1144   -1.0229    0.0000 C   0  0  0  0  0  0  0  0  0  0  0  0
   -0.9214   -0.8513    0.0000 C   0  0  0  0  0  0  0  0  0  0  0  0
   -1.1763   -0.0667    0.0000 C   0  0  0  0  0  0  0  0  0  0  0  0
   -0.6243    0.5464    0.0000 C   0  0  0  0  0  0  0  0  0  0  0  0
   -0.8792    1.3310    0.0000 C   0  0  0  0  0  0  0  0  0  0  0  0
    0.1827    0.3749    0.0000 C   0  0  0  0  0  0  0  0  0  0  0  0
    0.4376   -0.4098    0.0000 C   0  0  0  0  0  0  0  0  0  0  0  0
    1.1801   -2.8470    0.0000 C   0  0  0  0  0  0  0  0  0  0  0  0
    1.8945   -2.4345    0.0000 N   0  0  0  0  0  0  0  0  0  0  0  0
    2.6090   -2.8470    0.0000 C   0  0  0  0  0  0  0  0  0  0  0  0
    3.3235   -2.4345    0.0000 C   0  0  0  0  0  0  0  0  0  0  0  0
    4.0380   -2.8470    0.0000 C   0  0  0  0  0  0  0  0  0  0  0  0
    4.0380   -3.6720    0.0000 C   0  0  0  0  0  0  0  0  0  0  0  0
    3.3235   -4.0845    0.0000 C   0  0  0  0  0  0  0  0  0  0  0  0
    2.6090   -3.6720    0.0000 C   0  0  0  0  0  0  0  0  0  0  0  0
    1.8945   -4.0845    0.0000 N   0  0  0  0  0  0  0  0  0  0  0  0
    1.1801   -3.6720    0.0000 C   0  0  0  0  0  0  0  0  0  0  0  0
   -0.5020   -5.4030    0.0000 H   0  0  0  0  0  0  0  0  0  0  0  0
    1.4995   -5.1532    0.0000 H   0  0  0  0  0  0  0  0  0  0  0  0
   -1.3270   -2.5451    0.0000 H   0  0  0  0  0  0  0  0  0  0  0  0
   -0.0946    1.5859    0.0000 H   0  0  0  0  0  0  0  0  0  0  0  0
   -1.1342    2.1156    0.0000 H   0  0  0  0  0  0  0  0  0  0  0  0
   -1.6639    1.0761    0.0000 H   0  0  0  0  0  0  0  0  0  0  0  0
   -2.9770   -3.9740    0.0000 H   0  0  0  0  0  0  0  0  0  0  0  0
    4.7524   -2.4345    0.0000 H   0  0  0  0  0  0  0  0  0  0  0  0
   -0.3694   -6.2809    0.0000 H   0  0  0  0  0  0  0  0  0  0  0  0
    0.9896   -6.7224    0.0000 H   0  0  0  0  0  0  0  0  0  0  0  0
   -0.3406   -5.3818    0.0000 H   0  0  0  0  0  0  0  0  0  0  0  0
    0.9475   -4.5401    0.0000 H   0  0  0  0  0  0  0  0  0  0  0  0
    3.3235   -4.9095    0.0000 H   0  0  0  0  0  0  0  0  0  0  0  0
   -1.3270   -6.8319    0.0000 H   0  0  0  0  0  0  0  0  0  0  0  0
   -2.9770   -6.8319    0.0000 H   0  0  0  0  0  0  0  0  0  0  0  0
   -1.9833    0.1048    0.0000 H   0  0  0  0  0  0  0  0  0  0  0  0
    4.7524   -4.0845    0.0000 H   0  0  0  0  0  0  0  0  0  0  0  0
    3.3235   -1.6095    0.0000 H   0  0  0  0  0  0  0  0  0  0  0  0
   -3.8020   -5.4030    0.0000 H   0  0  0  0  0  0  0  0  0  0  0  0
    1.2446   -0.5813    0.0000 H   0  0  0  0  0  0  0  0  0  0  0  0
    0.7347    0.9879    0.0000 H   0  0  0  0  0  0  0  0  0  0  0  0
   -1.4734   -1.4644    0.0000 H   0  0  0  0  0  0  0  0  0  0  0  0
  1  2  2  0  0  0  0
  2  3  1  0  0  0  0
  3  4  1  0  0  0  0
  4  5  4  0  0  0  0
  4 36  4  0  0  0  0
  5  6  1  0  0  0  0
  5 16  4  0  0  0  0
  6  7  1  0  0  0  0
  7  8  2  0  0  0  0
  7  9  2  0  0  0  0
  7 10  1  0  0  0  0
 10 11  4  0  0  0  0
 10 15  4  0  0  0  0
 11 12  4  0  0  0  0
 12 13  4  0  0  0  0
 13 14  4  0  0  0  0
 14 15  4  0  0  0  0
 16 17  1  0  0  0  0
 16 27  4  0  0  0  0
 17 18  2  0  0  0  0
 17 19  2  0  0  0  0
 17 20  1  0  0  0  0
 20 21  4  0  0  0  0
 20 26  4  0  0  0  0
 21 22  4  0  0  0  0
 22 23  4  0  0  0  0
 23 24  1  0  0  0  0
 23 25  4  0  0  0  0
 25 26  4  0  0  0  0
 27 28  4  0  0  0  0
 27 36  4  0  0  0  0
 28 29  4  0  0  0  0
 29 30  4  0  0  0  0
 29 34  4  0  0  0  0
 30 31  4  0  0  0  0
 31 32  4  0  0  0  0
 32 33  4  0  0  0  0
 33 34  4  0  0  0  0
 34 35  4  0  0  0  0
 35 36  4  0  0  0  0
 11 37  1  0  0  0  0
  2 38  1  0  0  0  0
  6 39  1  0  0  0  0
 24 40  1  0  0  0  0
 24 41  1  0  0  0  0
 24 42  1  0  0  0  0
 15 43  1  0  0  0  0
 31 44  1  0  0  0  0
  1 45  1  0  0  0  0
  1 46  1  0  0  0  0
  3 47  1  0  0  0  0
  3 48  1  0  0  0  0
 33 49  1  0  0  0  0
 12 50  1  0  0  0  0
 13 51  1  0  0  0  0
 22 52  1  0  0  0  0
 32 53  1  0  0  0  0
 30 54  1  0  0  0  0
 14 55  1  0  0  0  0
 26 56  1  0  0  0  0
 25 57  1  0  0  0  0
 21 58  1  0  0  0  0
M  END
> <Molecule ChEMBL ID>
CHEMBL1612112

> <Class(50)>
1

> <Class(80)>
1

>  <salt>
false

>  <StandardizerResult>
Tautomerize (ID: Tautomerize)
Transform (ID: Transform NO2 (1))
Aromatize (ID: Aromatize)
Wedge Clean (ID: Wedge Clean)
Clean 2D (ID: Clean2D)

$$$$
CHEMBL154580
  Mrv2010 08032110442D          

 24 25  0  0  0  0            999 V2000
   -2.6498   -2.9850    0.0000 C   0  0  0  0  0  0  0  0  0  0  0  0
   -1.9354   -2.5725    0.0000 C   0  0  0  0  0  0  0  0  0  0  0  0
   -1.9354   -1.7475    0.0000 C   0  0  0  0  0  0  0  0  0  0  0  0
   -2.6498   -1.3350    0.0000 O   0  0  0  0  0  0  0  0  0  0  0  0
   -1.2209   -1.3350    0.0000 C   0  0  0  0  0  0  0  0  0  0  0  0
   -1.2209   -0.5100    0.0000 C   0  0  0  0  0  0  0  0  0  0  0  0
   -0.5064   -0.0975    0.0000 C   0  0  0  0  0  0  0  0  0  0  0  0
    0.2080   -0.5100    0.0000 C   0  0  0  0  0  0  0  0  0  0  0  0
    0.9225   -0.0975    0.0000 C   0  0  0  0  0  0  0  0  0  0  0  0
    1.6370   -0.5100    0.0000 C   0  0  0  0  0  0  0  0  0  0  0  0
    1.6370   -1.3350    0.0000 C   0  0  0  0  0  0  0  0  0  0  0  0
    0.9225   -1.7475    0.0000 C   0  0  0  0  0  0  0  0  0  0  0  0
    0.2080   -1.3350    0.0000 C   0  0  0  0  0  0  0  0  0  0  0  0
   -0.5064   -1.7475    0.0000 C   0  0  0  0  0  0  0  0  0  0  0  0
   -1.2209   -2.9850    0.0000 H   0  0  0  0  0  0  0  0  0  0  0  0
   -1.9354   -0.0975    0.0000 H   0  0  0  0  0  0  0  0  0  0  0  0
   -3.3643   -2.5725    0.0000 H   0  0  0  0  0  0  0  0  0  0  0  0
   -2.6498   -3.8100    0.0000 H   0  0  0  0  0  0  0  0  0  0  0  0
   -0.5064   -2.5725    0.0000 H   0  0  0  0  0  0  0  0  0  0  0  0
    2.3515   -1.7475    0.0000 H   0  0  0  0  0  0  0  0  0  0  0  0
   -0.5064    0.7275    0.0000 H   0  0  0  0  0  0  0  0  0  0  0  0
    0.9225    0.7275    0.0000 H   0  0  0  0  0  0  0  0  0  0  0  0
    0.9225   -2.5725    0.0000 H   0  0  0  0  0  0  0  0  0  0  0  0
    2.3515   -0.0975    0.0000 H   0  0  0  0  0  0  0  0  0  0  0  0
  1  2  2  0  0  0  0
  2  3  1  0  0  0  0
  3  4  2  0  0  0  0
  3  5  1  0  0  0  0
  5  6  4  0  0  0  0
  5 14  4  0  0  0  0
  6  7  4  0  0  0  0
  7  8  4  0  0  0  0
  8  9  4  0  0  0  0
  8 13  4  0  0  0  0
  9 10  4  0  0  0  0
 10 11  4  0  0  0  0
 11 12  4  0  0  0  0
 12 13  4  0  0  0  0
 13 14  4  0  0  0  0
  2 15  1  0  0  0  0
  6 16  1  0  0  0  0
  1 17  1  0  0  0  0
  1 18  1  0  0  0  0
 14 19  1  0  0  0  0
 11 20  1  0  0  0  0
  7 21  1  0  0  0  0
  9 22  1  0  0  0  0
 12 23  1  0  0  0  0
 10 24  1  0  0  0  0
M  END
> <Molecule ChEMBL ID>
CHEMBL154580

> <Class(50)>
1

> <Class(80)>
1

>  <salt>
false

>  <StandardizerResult>
Tautomerize (ID: Tautomerize)
Neutralize (ID: Neutralize)
Aromatize (ID: Aromatize)
Wedge Clean (ID: Wedge Clean)
Clean 2D (ID: Clean2D)

$$$$
CHEMBL1555751
  Mrv2010 08032110442D          

 54 57  0  0  1  0            999 V2000
   -1.2730   -4.1218    0.0000 C   0  0  0  0  0  0  0  0  0  0  0  0
   -1.2730   -3.2968    0.0000 C   0  0  0  0  0  0  0  0  0  0  0  0
   -1.9875   -2.8843    0.0000 C   0  0  0  0  0  0  0  0  0  0  0  0
   -2.7019   -3.2968    0.0000 C   0  0  0  0  0  0  0  0  0  0  0  0
   -3.4164   -2.8843    0.0000 C   0  0  0  0  0  0  0  0  0  0  0  0
   -3.4164   -2.0593    0.0000 C   0  0  0  0  0  0  0  0  0  0  0  0
   -2.7019   -1.6468    0.0000 C   0  0  0  0  0  0  0  0  0  0  0  0
   -2.7019   -0.8218    0.0000 O   0  0  0  0  0  0  0  0  0  0  0  0
   -1.9875   -2.0593    0.0000 C   0  0  0  0  0  0  0  0  0  0  0  0
   -1.2730   -1.6468    0.0000 C   0  0  0  0  0  0  0  0  0  0  0  0
   -1.2730   -0.8218    0.0000 O   0  0  0  0  0  0  0  0  0  0  0  0
   -0.5585   -2.0593    0.0000 C   0  0  1  0  0  0  0  0  0  0  0  0
    0.1559   -1.6468    0.0000 C   0  0  0  0  0  0  0  0  0  0  0  0
    0.1559   -0.8218    0.0000 O   0  0  0  0  0  0  0  0  0  0  0  0
    0.8704   -2.0593    0.0000 C   0  0  0  0  0  0  0  0  0  0  0  0
    0.8704   -1.2343    0.0000 O   0  0  0  0  0  0  0  0  0  0  0  0
    1.5849   -1.6468    0.0000 C   0  0  0  0  0  0  0  0  0  0  0  0
    1.5849   -0.8218    0.0000 O   0  0  0  0  0  0  0  0  0  0  0  0
    2.2993   -2.0593    0.0000 C   0  0  0  0  0  0  0  0  0  0  0  0
    3.0138   -1.6468    0.0000 C   0  0  0  0  0  0  0  0  0  0  0  0
    3.0138   -0.8218    0.0000 O   0  0  0  0  0  0  0  0  0  0  0  0
    3.7283   -2.0593    0.0000 N   0  0  0  0  0  0  0  0  0  0  0  0
    2.2993   -2.8843    0.0000 C   0  0  0  0  0  0  0  0  0  0  0  0
    3.0138   -3.2968    0.0000 O   0  0  0  0  0  0  0  0  0  0  0  0
    1.5849   -3.2968    0.0000 C   0  0  1  0  0  0  0  0  0  0  0  0
    1.5849   -4.1218    0.0000 N   0  0  0  0  0  0  0  0  0  0  0  0
    0.8704   -4.5343    0.0000 C   0  0  0  0  0  0  0  0  0  0  0  0
    2.2993   -4.5343    0.0000 C   0  0  0  0  0  0  0  0  0  0  0  0
    0.8704   -2.8843    0.0000 C   0  0  1  0  0  0  0  0  0  0  0  0
    0.1559   -3.2968    0.0000 C   0  0  1  0  0  0  0  0  0  0  0  0
    0.1559   -4.1218    0.0000 O   0  0  0  0  0  0  0  0  0  0  0  0
   -0.5585   -2.8843    0.0000 C   0  0  1  0  0  0  0  0  0  0  0  0
    1.5849   -2.4718    0.0000 H   0  0  0  0  0  0  0  0  0  0  0  0
   -0.2566   -4.8363    0.0000 H   0  0  0  0  0  0  0  0  0  0  0  0
   -4.1309   -3.2968    0.0000 H   0  0  0  0  0  0  0  0  0  0  0  0
    2.2993   -0.4093    0.0000 H   0  0  0  0  0  0  0  0  0  0  0  0
    0.1559   -4.9468    0.0000 H   0  0  0  0  0  0  0  0  0  0  0  0
    0.8704   -5.3593    0.0000 H   0  0  0  0  0  0  0  0  0  0  0  0
    1.5849   -4.9468    0.0000 H   0  0  0  0  0  0  0  0  0  0  0  0
   -2.7019   -4.1218    0.0000 H   0  0  0  0  0  0  0  0  0  0  0  0
    0.8704   -0.4093    0.0000 H   0  0  0  0  0  0  0  0  0  0  0  0
   -1.9875   -4.5343    0.0000 H   0  0  0  0  0  0  0  0  0  0  0  0
   -0.5585   -4.5343    0.0000 H   0  0  0  0  0  0  0  0  0  0  0  0
   -1.2730   -2.4718    0.0000 H   0  0  0  0  0  0  0  0  0  0  0  0
   -4.1309   -1.6468    0.0000 H   0  0  0  0  0  0  0  0  0  0  0  0
    2.5129   -5.3312    0.0000 H   0  0  0  0  0  0  0  0  0  0  0  0
    3.1243   -4.5343    0.0000 H   0  0  0  0  0  0  0  0  0  0  0  0
    2.5129   -3.7374    0.0000 H   0  0  0  0  0  0  0  0  0  0  0  0
   -0.5585   -3.7093    0.0000 H   0  0  0  0  0  0  0  0  0  0  0  0
   -1.9875   -0.4093    0.0000 H   0  0  0  0  0  0  0  0  0  0  0  0
    0.1559   -2.4718    0.0000 H   0  0  0  0  0  0  0  0  0  0  0  0
    0.8704   -3.7093    0.0000 H   0  0  0  0  0  0  0  0  0  0  0  0
    3.7283   -2.8843    0.0000 H   0  0  0  0  0  0  0  0  0  0  0  0
    4.4428   -1.6468    0.0000 H   0  0  0  0  0  0  0  0  0  0  0  0
  1  2  2  0  0  0  0
  2  3  1  0  0  0  0
 32  2  1  0  0  0  0
  3  4  4  0  0  0  0
  3  9  4  0  0  0  0
  4  5  4  0  0  0  0
  5  6  4  0  0  0  0
  6  7  4  0  0  0  0
  7  8  1  0  0  0  0
  7  9  4  0  0  0  0
  9 10  1  0  0  0  0
 10 11  2  0  0  0  0
 12 10  1  0  0  0  0
 12 13  1  0  0  0  0
 32 12  1  0  0  0  0
 13 14  2  0  0  0  0
 13 15  1  0  0  0  0
 15 16  1  0  0  0  0
 15 17  1  0  0  0  0
 29 15  1  0  0  0  0
 17 18  1  0  0  0  0
 17 19  2  0  0  0  0
 19 20  1  0  0  0  0
 19 23  1  0  0  0  0
 20 21  2  0  0  0  0
 20 22  1  0  0  0  0
 23 24  2  0  0  0  0
 25 23  1  0  0  0  0
 25 26  1  0  0  0  0
 29 25  1  0  0  0  0
 26 27  1  0  0  0  0
 26 28  1  0  0  0  0
 29 30  1  0  0  0  0
 30 31  1  0  0  0  0
 30 32  1  0  0  0  0
 29 33  1  6  0  0  0
 31 34  1  0  0  0  0
  5 35  1  0  0  0  0
 18 36  1  0  0  0  0
 27 37  1  0  0  0  0
 27 38  1  0  0  0  0
 27 39  1  0  0  0  0
  4 40  1  0  0  0  0
 16 41  1  0  0  0  0
  1 42  1  0  0  0  0
  1 43  1  0  0  0  0
 32 44  1  6  0  0  0
  6 45  1  0  0  0  0
 28 46  1  0  0  0  0
 28 47  1  0  0  0  0
 28 48  1  0  0  0  0
 30 49  1  6  0  0  0
  8 50  1  0  0  0  0
 12 51  1  6  0  0  0
 25 52  1  6  0  0  0
 22 53  1  0  0  0  0
 22 54  1  0  0  0  0
M  END
> <Molecule ChEMBL ID>
CHEMBL1555751

> <Class(50)>
1

> <Class(80)>
1

>  <salt>
true

>  <StandardizerResult>
Tautomerize (ID: Tautomerize)
Transform (ID: Transform NO2 (1))
Aromatize (ID: Aromatize)
Wedge Clean (ID: Wedge Clean)
Clean 2D (ID: Clean2D)

$$$$
CHEMBL4303503
  Mrv2010 08032110442D          

 53 57  0  0  1  0            999 V2000
    3.3811   -0.4017    0.0000 C   0  0  0  0  0  0  0  0  0  0  0  0
    2.6096   -0.1094    0.0000 C   0  0  0  0  0  0  0  0  0  0  0  0
    1.9484   -0.6395    0.0000 C   0  0  0  0  0  0  0  0  0  0  0  0
    2.0504   -1.4582    0.0000 O   0  0  0  0  0  0  0  0  0  0  0  0
    1.1552   -0.2776    0.0000 C   0  0  0  0  0  0  0  0  0  0  0  0
    1.7494    0.3322    0.0000 C   0  0  1  0  0  0  0  0  0  0  0  0
    1.2455    0.9855    0.0000 O   0  0  0  0  0  0  0  0  0  0  0  0
    2.4638    0.7372    0.0000 C   0  0  0  0  0  0  0  0  0  0  0  0
    1.8645    1.3531    0.0000 C   0  0  0  0  0  0  0  0  0  0  0  0
    1.0144    1.3126    0.0000 C   0  0  0  0  0  0  0  0  0  0  0  0
    0.6469    0.5362    0.0000 C   0  0  1  0  0  0  0  0  0  0  0  0
   -0.2782    0.3673    0.0000 C   0  0  0  0  0  0  0  0  0  0  0  0
    0.3589   -0.0432    0.0000 C   0  0  0  0  0  0  0  0  0  0  0  0
    0.1754   -0.7810    0.0000 O   0  0  0  0  0  0  0  0  0  0  0  0
    0.8203   -1.1336    0.0000 C   0  0  0  0  0  0  0  0  0  0  0  0
    1.3564   -1.7607    0.0000 O   0  0  0  0  0  0  0  0  0  0  0  0
   -0.0822   -1.3324    0.0000 C   0  0  0  0  0  0  0  0  0  0  0  0
   -0.5506   -0.5303    0.0000 C   0  0  1  0  0  0  0  0  0  0  0  0
   -1.3117   -0.9222    0.0000 C   0  0  0  0  0  0  0  0  0  0  0  0
   -0.8745   -1.6218    0.0000 C   0  0  0  0  0  0  0  0  0  0  0  0
   -1.9726   -1.4160    0.0000 C   0  0  0  0  0  0  0  0  0  0  0  0
   -1.8696   -0.2921    0.0000 C   0  0  0  0  0  0  0  0  0  0  0  0
   -1.7268    0.5391    0.0000 C   0  0  0  0  0  0  0  0  0  0  0  0
   -0.9627    0.8899    0.0000 C   0  0  1  0  0  0  0  0  0  0  0  0
   -0.8714    1.7098    0.0000 O   0  0  0  0  0  0  0  0  0  0  0  0
   -2.1609   -0.6128    0.0000 H   0  0  0  0  0  0  0  0  0  0  0  0
   -2.7841   -1.2673    0.0000 H   0  0  0  0  0  0  0  0  0  0  0  0
   -2.4334   -2.1003    0.0000 H   0  0  0  0  0  0  0  0  0  0  0  0
    0.1446    1.1906    0.0000 H   0  0  0  0  0  0  0  0  0  0  0  0
    1.9125    1.1410    0.0000 H   0  0  0  0  0  0  0  0  0  0  0  0
   -0.4080   -0.3471    0.0000 H   0  0  0  0  0  0  0  0  0  0  0  0
    0.7691   -0.7590    0.0000 H   0  0  0  0  0  0  0  0  0  0  0  0
   -0.2041    1.2141    0.0000 H   0  0  0  0  0  0  0  0  0  0  0  0
   -1.1843   -0.0020    0.0000 H   0  0  0  0  0  0  0  0  0  0  0  0
   -2.3935    0.3452    0.0000 H   0  0  0  0  0  0  0  0  0  0  0  0
   -2.6943   -0.2717    0.0000 H   0  0  0  0  0  0  0  0  0  0  0  0
    2.4671    1.9166    0.0000 H   0  0  0  0  0  0  0  0  0  0  0  0
    1.8090    2.1762    0.0000 H   0  0  0  0  0  0  0  0  0  0  0  0
    3.1989    1.1117    0.0000 H   0  0  0  0  0  0  0  0  0  0  0  0
    1.1345    0.1680    0.0000 H   0  0  0  0  0  0  0  0  0  0  0  0
   -1.6904   -1.4998    0.0000 H   0  0  0  0  0  0  0  0  0  0  0  0
   -1.4973   -2.1629    0.0000 H   0  0  0  0  0  0  0  0  0  0  0  0
   -0.8677   -2.4468    0.0000 H   0  0  0  0  0  0  0  0  0  0  0  0
   -0.2604   -2.1379    0.0000 H   0  0  0  0  0  0  0  0  0  0  0  0
    0.5009   -1.9160    0.0000 H   0  0  0  0  0  0  0  0  0  0  0  0
    3.5137   -1.2160    0.0000 H   0  0  0  0  0  0  0  0  0  0  0  0
    4.0200    0.1203    0.0000 H   0  0  0  0  0  0  0  0  0  0  0  0
    1.1714   -2.5646    0.0000 H   0  0  0  0  0  0  0  0  0  0  0  0
   -0.7924    2.5310    0.0000 H   0  0  0  0  0  0  0  0  0  0  0  0
    0.9164    2.1317    0.0000 H   0  0  0  0  0  0  0  0  0  0  0  0
    0.2957    1.7178    0.0000 H   0  0  0  0  0  0  0  0  0  0  0  0
   -1.6098    1.3558    0.0000 H   0  0  0  0  0  0  0  0  0  0  0  0
   -2.3497    1.0800    0.0000 H   0  0  0  0  0  0  0  0  0  0  0  0
  1  2  2  0  0  0  0
  2  3  1  0  0  0  0
  2  8  1  0  0  0  0
  3  4  2  0  0  0  0
  3  5  1  0  0  0  0
  6  5  1  0  0  0  0
 11  5  1  0  0  0  0
  5 15  1  0  0  0  0
  6  7  1  0  0  0  0
  6  8  1  0  0  0  0
  8  9  1  0  0  0  0
  9 10  1  0  0  0  0
 11 10  1  0  0  0  0
 11 12  1  0  0  0  0
 12 13  1  0  0  0  0
 18 12  1  0  0  0  0
 24 12  1  0  0  0  0
 13 14  1  0  0  0  0
 14 15  1  0  0  0  0
 15 16  1  0  0  0  0
 15 17  1  0  0  0  0
 18 17  1  0  0  0  0
 18 19  1  0  0  0  0
 19 20  1  0  0  0  0
 19 21  1  0  0  0  0
 19 22  1  0  0  0  0
 22 23  1  0  0  0  0
 24 23  1  0  0  0  0
 24 25  1  0  0  0  0
 21 26  1  0  0  0  0
 21 27  1  0  0  0  0
 21 28  1  0  0  0  0
 11 29  1  1  0  0  0
  6 30  1  6  0  0  0
 13 31  1  0  0  0  0
 13 32  1  0  0  0  0
 24 33  1  6  0  0  0
 18 34  1  6  0  0  0
 22 35  1  0  0  0  0
 22 36  1  0  0  0  0
  9 37  1  0  0  0  0
  9 38  1  0  0  0  0
  8 39  1  0  0  0  0
  7 40  1  0  0  0  0
 20 41  1  0  0  0  0
 20 42  1  0  0  0  0
 20 43  1  0  0  0  0
 17 44  1  0  0  0  0
 17 45  1  0  0  0  0
  1 46  1  0  0  0  0
  1 47  1  0  0  0  0
 16 48  1  0  0  0  0
 25 49  1  0  0  0  0
 10 50  1  0  0  0  0
 10 51  1  0  0  0  0
 23 52  1  0  0  0  0
 23 53  1  0  0  0  0
M  END
> <Molecule ChEMBL ID>
CHEMBL4303503

> <Class(50)>
1

> <Class(80)>
1

>  <salt>
false

>  <StandardizerResult>
Tautomerize (ID: Tautomerize)
Transform (ID: Transform NO2 (1))
Wedge Clean (ID: Wedge Clean)
Clean 2D (ID: Clean2D)

$$$$
CHEMBL168067
  Mrv2010 08032110442D          

 50 52  0  0  0  0            999 V2000
   -0.6091    3.4992    0.0000 C   0  0  0  0  0  0  0  0  0  0  0  0
   -1.1394    2.8673    0.0000 N   0  3  0  0  0  0  0  0  0  0  0  0
   -1.6697    3.4992    0.0000 C   0  0  0  0  0  0  0  0  0  0  0  0
   -0.4249    2.4548    0.0000 C   0  0  0  0  0  0  0  0  0  0  0  0
   -0.4249    1.6298    0.0000 C   0  0  0  0  0  0  0  0  0  0  0  0
   -1.1394    1.2173    0.0000 C   0  0  0  0  0  0  0  0  0  0  0  0
   -1.1394    0.3923    0.0000 O   0  0  0  0  0  0  0  0  0  0  0  0
   -1.8539   -0.0202    0.0000 C   0  0  0  0  0  0  0  0  0  0  0  0
   -2.5683    0.3923    0.0000 O   0  0  0  0  0  0  0  0  0  0  0  0
   -1.8539   -0.8452    0.0000 C   0  0  0  0  0  0  0  0  0  0  0  0
   -2.5683   -1.2577    0.0000 C   0  0  0  0  0  0  0  0  0  0  0  0
   -2.5683   -2.0827    0.0000 C   0  0  0  0  0  0  0  0  0  0  0  0
   -3.2828   -2.4952    0.0000 C   0  0  0  0  0  0  0  0  0  0  0  0
   -3.9973   -2.0827    0.0000 C   0  0  0  0  0  0  0  0  0  0  0  0
   -3.9973   -1.2577    0.0000 C   0  0  0  0  0  0  0  0  0  0  0  0
   -3.2828   -0.8452    0.0000 C   0  0  0  0  0  0  0  0  0  0  0  0
   -1.1394   -1.2577    0.0000 C   0  0  0  0  0  0  0  0  0  0  0  0
   -0.4249   -0.8452    0.0000 C   0  0  0  0  0  0  0  0  0  0  0  0
    0.2896   -1.2577    0.0000 C   0  0  0  0  0  0  0  0  0  0  0  0
    0.2896   -2.0827    0.0000 C   0  0  0  0  0  0  0  0  0  0  0  0
   -0.4249   -2.4952    0.0000 C   0  0  0  0  0  0  0  0  0  0  0  0
   -1.1394   -2.0827    0.0000 C   0  0  0  0  0  0  0  0  0  0  0  0
   -1.8539    1.6298    0.0000 C   0  0  0  0  0  0  0  0  0  0  0  0
   -1.8539    2.4548    0.0000 C   0  0  0  0  0  0  0  0  0  0  0  0
   -2.6571    2.6430    0.0000 H   0  0  0  0  0  0  0  0  0  0  0  0
   -1.6307    3.2490    0.0000 H   0  0  0  0  0  0  0  0  0  0  0  0
    1.0040   -2.4952    0.0000 H   0  0  0  0  0  0  0  0  0  0  0  0
    0.0229    2.9689    0.0000 H   0  0  0  0  0  0  0  0  0  0  0  0
   -0.0788    4.1312    0.0000 H   0  0  0  0  0  0  0  0  0  0  0  0
   -1.2411    4.0295    0.0000 H   0  0  0  0  0  0  0  0  0  0  0  0
   -2.6291    1.9119    0.0000 H   0  0  0  0  0  0  0  0  0  0  0  0
   -2.6291    1.3476    0.0000 H   0  0  0  0  0  0  0  0  0  0  0  0
   -0.2556    0.8223    0.0000 H   0  0  0  0  0  0  0  0  0  0  0  0
    0.2330    1.1320    0.0000 H   0  0  0  0  0  0  0  0  0  0  0  0
   -1.8539   -2.4952    0.0000 H   0  0  0  0  0  0  0  0  0  0  0  0
   -1.8539   -1.6702    0.0000 H   0  0  0  0  0  0  0  0  0  0  0  0
   -1.8539    0.8048    0.0000 H   0  0  0  0  0  0  0  0  0  0  0  0
   -3.2828   -3.3202    0.0000 H   0  0  0  0  0  0  0  0  0  0  0  0
   -4.7117   -2.4952    0.0000 H   0  0  0  0  0  0  0  0  0  0  0  0
   -0.4249   -3.3202    0.0000 H   0  0  0  0  0  0  0  0  0  0  0  0
    1.0040   -0.8452    0.0000 H   0  0  0  0  0  0  0  0  0  0  0  0
    0.3477    2.1655    0.0000 H   0  0  0  0  0  0  0  0  0  0  0  0
   -1.1394    2.0423    0.0000 H   0  0  0  0  0  0  0  0  0  0  0  0
   -2.0286    4.2421    0.0000 H   0  0  0  0  0  0  0  0  0  0  0  0
   -2.4946    3.4917    0.0000 H   0  0  0  0  0  0  0  0  0  0  0  0
   -2.0149    2.7499    0.0000 H   0  0  0  0  0  0  0  0  0  0  0  0
   -0.4249   -0.0202    0.0000 H   0  0  0  0  0  0  0  0  0  0  0  0
   -4.7117   -0.8452    0.0000 H   0  0  0  0  0  0  0  0  0  0  0  0
   -3.6953   -0.1308    0.0000 H   0  0  0  0  0  0  0  0  0  0  0  0
   -2.5683   -0.4327    0.0000 H   0  0  0  0  0  0  0  0  0  0  0  0
  1  2  1  0  0  0  0
  2  3  1  0  0  0  0
  2  4  1  0  0  0  0
  2 24  1  0  0  0  0
  4  5  1  0  0  0  0
  5  6  1  0  0  0  0
  6  7  1  0  0  0  0
  6 23  1  0  0  0  0
  7  8  1  0  0  0  0
  8  9  2  0  0  0  0
  8 10  1  0  0  0  0
 10 11  1  0  0  0  0
 10 17  1  0  0  0  0
 11 12  4  0  0  0  0
 11 16  4  0  0  0  0
 12 13  4  0  0  0  0
 13 14  4  0  0  0  0
 14 15  4  0  0  0  0
 15 16  4  0  0  0  0
 17 18  4  0  0  0  0
 17 22  4  0  0  0  0
 18 19  4  0  0  0  0
 19 20  4  0  0  0  0
 20 21  4  0  0  0  0
 21 22  4  0  0  0  0
 23 24  1  0  0  0  0
 24 25  1  0  0  0  0
 24 26  1  0  0  0  0
 20 27  1  0  0  0  0
  1 28  1  0  0  0  0
  1 29  1  0  0  0  0
  1 30  1  0  0  0  0
 23 31  1  0  0  0  0
 23 32  1  0  0  0  0
  5 33  1  0  0  0  0
  5 34  1  0  0  0  0
 12 35  1  0  0  0  0
 22 36  1  0  0  0  0
  6 37  1  0  0  0  0
 13 38  1  0  0  0  0
 14 39  1  0  0  0  0
 21 40  1  0  0  0  0
 19 41  1  0  0  0  0
  4 42  1  0  0  0  0
  4 43  1  0  0  0  0
  3 44  1  0  0  0  0
  3 45  1  0  0  0  0
  3 46  1  0  0  0  0
 18 47  1  0  0  0  0
 15 48  1  0  0  0  0
 16 49  1  0  0  0  0
 10 50  1  0  0  0  0
M  CHG  1   2   1
M  END
> <Molecule ChEMBL ID>
CHEMBL168067

> <Class(50)>
1

> <Class(80)>
1

>  <salt>
false

>  <StandardizerResult>
Tautomerize (ID: Tautomerize)
Aromatize (ID: Aromatize)
Wedge Clean (ID: Wedge Clean)
Clean 2D (ID: Clean2D)

$$$$
CHEMBL1923234
  Mrv2010 08032110442D          

 36 37  0  0  1  0            999 V2000
   -0.0206   -0.8424    0.0000 C   0  0  0  0  0  0  0  0  0  0  0  0
    0.6939   -1.2549    0.0000 C   0  0  1  0  0  0  0  0  0  0  0  0
    0.6939   -2.0799    0.0000 N   0  0  0  0  0  0  0  0  0  0  0  0
   -0.0206   -2.4924    0.0000 C   0  0  0  0  0  0  0  0  0  0  0  0
   -0.7351   -2.0799    0.0000 O   0  0  0  0  0  0  0  0  0  0  0  0
   -0.0206   -3.3174    0.0000 C   0  0  0  0  0  0  0  0  0  0  0  0
    0.6939   -3.7299    0.0000 C   0  0  0  0  0  0  0  0  0  0  0  0
    0.6939   -4.5549    0.0000 C   0  0  0  0  0  0  0  0  0  0  0  0
    1.4083   -4.9674    0.0000 C   0  0  0  0  0  0  0  0  0  0  0  0
    1.4083   -5.7924    0.0000 C   0  0  0  0  0  0  0  0  0  0  0  0
    0.6939   -6.2049    0.0000 C   0  0  0  0  0  0  0  0  0  0  0  0
   -0.0206   -5.7924    0.0000 C   0  0  0  0  0  0  0  0  0  0  0  0
   -0.7351   -6.2049    0.0000 Br  0  0  0  0  0  0  0  0  0  0  0  0
   -0.0206   -4.9674    0.0000 N   0  0  0  0  0  0  0  0  0  0  0  0
   -0.7351   -3.7299    0.0000 C   0  0  0  0  0  0  0  0  0  0  0  0
   -1.4496   -4.1424    0.0000 N   0  0  0  0  0  0  0  0  0  0  0  0
    1.4083   -0.8424    0.0000 C   0  0  0  0  0  0  0  0  0  0  0  0
    1.4083   -0.0174    0.0000 C   0  0  0  0  0  0  0  0  0  0  0  0
    2.1228    0.3951    0.0000 C   0  0  0  0  0  0  0  0  0  0  0  0
    2.8373   -0.0174    0.0000 C   0  0  0  0  0  0  0  0  0  0  0  0
    2.8373   -0.8424    0.0000 C   0  0  0  0  0  0  0  0  0  0  0  0
    2.1228   -1.2549    0.0000 C   0  0  0  0  0  0  0  0  0  0  0  0
    1.4083   -2.4924    0.0000 H   0  0  0  0  0  0  0  0  0  0  0  0
    2.1228   -6.2049    0.0000 H   0  0  0  0  0  0  0  0  0  0  0  0
   -0.0206   -1.6674    0.0000 H   0  0  0  0  0  0  0  0  0  0  0  0
    0.6939   -7.0299    0.0000 H   0  0  0  0  0  0  0  0  0  0  0  0
    0.6939    0.3951    0.0000 H   0  0  0  0  0  0  0  0  0  0  0  0
    2.1228   -2.0799    0.0000 H   0  0  0  0  0  0  0  0  0  0  0  0
    0.3919   -0.1280    0.0000 H   0  0  0  0  0  0  0  0  0  0  0  0
   -0.7351   -0.4299    0.0000 H   0  0  0  0  0  0  0  0  0  0  0  0
   -0.4331   -1.5569    0.0000 H   0  0  0  0  0  0  0  0  0  0  0  0
    2.1228   -4.5549    0.0000 H   0  0  0  0  0  0  0  0  0  0  0  0
    3.5517   -1.2549    0.0000 H   0  0  0  0  0  0  0  0  0  0  0  0
    1.4083   -3.3174    0.0000 H   0  0  0  0  0  0  0  0  0  0  0  0
    2.1228    1.2201    0.0000 H   0  0  0  0  0  0  0  0  0  0  0  0
    3.5517    0.3951    0.0000 H   0  0  0  0  0  0  0  0  0  0  0  0
  2  1  1  0  0  0  0
  2  3  1  0  0  0  0
  2 17  1  0  0  0  0
  3  4  1  0  0  0  0
  4  5  2  0  0  0  0
  4  6  1  0  0  0  0
  6  7  2  0  0  0  0
  6 15  1  0  0  0  0
  7  8  1  0  0  0  0
  8  9  4  0  0  0  0
  8 14  4  0  0  0  0
  9 10  4  0  0  0  0
 10 11  4  0  0  0  0
 11 12  4  0  0  0  0
 12 13  1  0  0  0  0
 12 14  4  0  0  0  0
 15 16  3  0  0  0  0
 17 18  4  0  0  0  0
 17 22  4  0  0  0  0
 18 19  4  0  0  0  0
 19 20  4  0  0  0  0
 20 21  4  0  0  0  0
 21 22  4  0  0  0  0
  3 23  1  0  0  0  0
 10 24  1  0  0  0  0
  2 25  1  1  0  0  0
 11 26  1  0  0  0  0
 18 27  1  0  0  0  0
 22 28  1  0  0  0  0
  1 29  1  0  0  0  0
  1 30  1  0  0  0  0
  1 31  1  0  0  0  0
  9 32  1  0  0  0  0
 21 33  1  0  0  0  0
  7 34  1  0  0  0  0
 19 35  1  0  0  0  0
 20 36  1  0  0  0  0
M  END
> <Molecule ChEMBL ID>
CHEMBL1923234

> <Class(50)>
1

> <Class(80)>
1

>  <salt>
false

>  <StandardizerResult>
Tautomerize (ID: Tautomerize)
Transform (ID: Transform NO2 (1))
Aromatize (ID: Aromatize)
Wedge Clean (ID: Wedge Clean)
Clean 2D (ID: Clean2D)

$$$$
CHEMBL4303331
  Mrv2010 08032110442D          

 53 56  0  0  1  0            999 V2000
    0.1287   -4.7263    0.0000 C   0  0  0  0  0  0  0  0  0  0  0  0
   -0.5857   -4.3138    0.0000 C   0  0  1  0  0  0  0  0  0  0  0  0
   -0.5857   -3.4888    0.0000 O   0  0  0  0  0  0  0  0  0  0  0  0
   -1.3002   -3.0763    0.0000 C   0  0  1  0  0  0  0  0  0  0  0  0
   -1.3002   -2.2513    0.0000 O   0  0  0  0  0  0  0  0  0  0  0  0
   -0.5857   -1.8388    0.0000 C   0  0  0  0  0  0  0  0  0  0  0  0
   -0.5857   -1.0138    0.0000 C   0  0  0  0  0  0  0  0  0  0  0  0
   -1.3002   -0.6013    0.0000 C   0  0  0  0  0  0  0  0  0  0  0  0
   -2.0147   -1.0138    0.0000 C   0  0  0  0  0  0  0  0  0  0  0  0
   -2.7292   -0.6013    0.0000 C   0  0  0  0  0  0  0  0  0  0  0  0
   -3.4436   -1.0138    0.0000 O   0  0  0  0  0  0  0  0  0  0  0  0
   -2.7292    0.2237    0.0000 C   0  0  0  0  0  0  0  0  0  0  0  0
   -3.4436    0.6362    0.0000 O   0  0  0  0  0  0  0  0  0  0  0  0
   -2.0147    0.6362    0.0000 C   0  0  0  0  0  0  0  0  0  0  0  0
   -2.0147    1.4612    0.0000 O   0  0  0  0  0  0  0  0  0  0  0  0
   -1.3002    0.2237    0.0000 C   0  0  0  0  0  0  0  0  0  0  0  0
    0.1287   -0.6013    0.0000 O   0  0  0  0  0  0  0  0  0  0  0  0
    0.8432   -1.0138    0.0000 C   0  0  0  0  0  0  0  0  0  0  0  0
    1.5577   -0.6013    0.0000 C   0  0  0  0  0  0  0  0  0  0  0  0
    2.2721   -1.0138    0.0000 C   0  0  0  0  0  0  0  0  0  0  0  0
    2.9866   -0.6013    0.0000 O   0  0  0  0  0  0  0  0  0  0  0  0
    2.2721   -1.8388    0.0000 C   0  0  0  0  0  0  0  0  0  0  0  0
    1.5577   -2.2513    0.0000 C   0  0  0  0  0  0  0  0  0  0  0  0
    1.5577   -3.0763    0.0000 O   0  0  0  0  0  0  0  0  0  0  0  0
    0.8432   -1.8388    0.0000 C   0  0  0  0  0  0  0  0  0  0  0  0
    0.1287   -2.2513    0.0000 C   0  0  0  0  0  0  0  0  0  0  0  0
    0.1287   -3.0763    0.0000 O   0  0  0  0  0  0  0  0  0  0  0  0
   -2.0147   -3.4888    0.0000 C   0  0  1  0  0  0  0  0  0  0  0  0
   -2.7292   -3.0763    0.0000 O   0  0  0  0  0  0  0  0  0  0  0  0
   -2.0147   -4.3138    0.0000 C   0  0  1  0  0  0  0  0  0  0  0  0
   -2.7292   -4.7263    0.0000 O   0  0  0  0  0  0  0  0  0  0  0  0
   -1.3002   -4.7263    0.0000 C   0  0  1  0  0  0  0  0  0  0  0  0
   -1.3002   -5.5513    0.0000 O   0  0  0  0  0  0  0  0  0  0  0  0
    2.9866   -2.2513    0.0000 H   0  0  0  0  0  0  0  0  0  0  0  0
   -2.0147   -2.6638    0.0000 H   0  0  0  0  0  0  0  0  0  0  0  0
   -1.3002    1.8737    0.0000 H   0  0  0  0  0  0  0  0  0  0  0  0
   -1.3002   -3.9013    0.0000 H   0  0  0  0  0  0  0  0  0  0  0  0
   -0.2838   -5.4407    0.0000 H   0  0  0  0  0  0  0  0  0  0  0  0
    0.8432   -5.1388    0.0000 H   0  0  0  0  0  0  0  0  0  0  0  0
    0.5412   -4.0118    0.0000 H   0  0  0  0  0  0  0  0  0  0  0  0
   -2.0147   -5.1388    0.0000 H   0  0  0  0  0  0  0  0  0  0  0  0
    0.8432   -3.4888    0.0000 H   0  0  0  0  0  0  0  0  0  0  0  0
    3.7011   -1.0138    0.0000 H   0  0  0  0  0  0  0  0  0  0  0  0
   -0.5857    0.6362    0.0000 H   0  0  0  0  0  0  0  0  0  0  0  0
   -3.4436    1.4612    0.0000 H   0  0  0  0  0  0  0  0  0  0  0  0
   -4.1581   -0.6013    0.0000 H   0  0  0  0  0  0  0  0  0  0  0  0
   -3.4436   -5.1388    0.0000 H   0  0  0  0  0  0  0  0  0  0  0  0
    1.5577    0.2237    0.0000 H   0  0  0  0  0  0  0  0  0  0  0  0
   -0.5857   -5.1388    0.0000 H   0  0  0  0  0  0  0  0  0  0  0  0
   -2.0147   -1.8388    0.0000 H   0  0  0  0  0  0  0  0  0  0  0  0
   -1.3002   -6.3763    0.0000 H   0  0  0  0  0  0  0  0  0  0  0  0
   -3.4436   -2.6638    0.0000 H   0  0  0  0  0  0  0  0  0  0  0  0
   -2.7292   -3.9013    0.0000 H   0  0  0  0  0  0  0  0  0  0  0  0
  2  1  1  0  0  0  0
  2  3  1  0  0  0  0
 32  2  1  0  0  0  0
  4  3  1  0  0  0  0
  4  5  1  0  0  0  0
 28  4  1  0  0  0  0
  5  6  1  0  0  0  0
  6  7  2  0  0  0  0
  6 26  1  0  0  0  0
  7  8  1  0  0  0  0
  7 17  1  0  0  0  0
  8  9  4  0  0  0  0
  8 16  4  0  0  0  0
  9 10  4  0  0  0  0
 10 11  1  0  0  0  0
 10 12  4  0  0  0  0
 12 13  1  0  0  0  0
 12 14  4  0  0  0  0
 14 15  1  0  0  0  0
 14 16  4  0  0  0  0
 17 18  1  0  0  0  0
 18 19  4  0  0  0  0
 18 25  4  0  0  0  0
 19 20  4  0  0  0  0
 20 21  1  0  0  0  0
 20 22  4  0  0  0  0
 22 23  4  0  0  0  0
 23 24  1  0  0  0  0
 23 25  4  0  0  0  0
 25 26  1  0  0  0  0
 26 27  2  0  0  0  0
 28 29  1  0  0  0  0
 28 30  1  0  0  0  0
 30 31  1  0  0  0  0
 30 32  1  0  0  0  0
 32 33  1  0  0  0  0
 22 34  1  0  0  0  0
  4 35  1  1  0  0  0
 15 36  1  0  0  0  0
 32 37  1  1  0  0  0
  1 38  1  0  0  0  0
  1 39  1  0  0  0  0
  1 40  1  0  0  0  0
 30 41  1  1  0  0  0
 24 42  1  0  0  0  0
 21 43  1  0  0  0  0
 16 44  1  0  0  0  0
 13 45  1  0  0  0  0
 11 46  1  0  0  0  0
 31 47  1  0  0  0  0
 19 48  1  0  0  0  0
  2 49  1  1  0  0  0
  9 50  1  0  0  0  0
 33 51  1  0  0  0  0
 29 52  1  0  0  0  0
 28 53  1  1  0  0  0
M  END
> <Molecule ChEMBL ID>
CHEMBL4303331

> <Class(50)>
1

> <Class(80)>
1

>  <salt>
false

>  <StandardizerResult>
Tautomerize (ID: Tautomerize)
Transform (ID: Transform NO2 (1))
Aromatize (ID: Aromatize)
Wedge Clean (ID: Wedge Clean)
Clean 2D (ID: Clean2D)

$$$$
CHEMBL444478
  Mrv2010 08032110442D          

 80 83  0  0  1  0            999 V2000
    3.0023   -1.3356    0.0000 C   0  0  0  0  0  0  0  0  0  0  0  0
    3.0023   -2.1606    0.0000 C   0  0  1  0  0  0  0  0  0  0  0  0
    2.2878   -2.5731    0.0000 O   0  0  0  0  0  0  0  0  0  0  0  0
    2.2878   -3.3981    0.0000 C   0  0  1  0  0  0  0  0  0  0  0  0
    1.5733   -3.8106    0.0000 O   0  0  0  0  0  0  0  0  0  0  0  0
    0.8589   -3.3981    0.0000 C   0  0  1  0  0  0  0  0  0  0  0  0
    0.1444   -3.8106    0.0000 C   0  0  1  0  0  0  0  0  0  0  0  0
    0.1444   -4.6356    0.0000 O   0  0  0  0  0  0  0  0  0  0  0  0
   -0.5701   -3.3981    0.0000 C   0  0  1  0  0  0  0  0  0  0  0  0
   -1.2846   -3.8106    0.0000 O   0  0  0  0  0  0  0  0  0  0  0  0
   -1.9990   -3.3981    0.0000 C   0  0  0  0  0  0  0  0  0  0  0  0
   -2.7135   -3.8106    0.0000 C   0  0  0  0  0  0  0  0  0  0  0  0
   -3.4280   -3.3981    0.0000 C   0  0  0  0  0  0  0  0  0  0  0  0
   -4.1424   -3.8106    0.0000 C   0  0  0  0  0  0  0  0  0  0  0  0
   -4.8569   -3.3981    0.0000 C   0  0  0  0  0  0  0  0  0  0  0  0
   -4.8569   -2.5731    0.0000 C   0  0  0  0  0  0  0  0  0  0  0  0
   -5.5714   -2.1606    0.0000 O   0  0  0  0  0  0  0  0  0  0  0  0
   -4.1424   -2.1606    0.0000 C   0  0  0  0  0  0  0  0  0  0  0  0
   -4.1424   -1.3356    0.0000 O   0  0  0  0  0  0  0  0  0  0  0  0
   -3.4280   -2.5731    0.0000 C   0  0  0  0  0  0  0  0  0  0  0  0
   -0.5701   -2.5731    0.0000 O   0  0  0  0  0  0  0  0  0  0  0  0
    0.1444   -2.1606    0.0000 C   0  0  1  0  0  0  0  0  0  0  0  0
    0.1444   -1.3356    0.0000 C   0  0  0  0  0  0  0  0  0  0  0  0
   -0.5701   -0.9231    0.0000 O   0  0  0  0  0  0  0  0  0  0  0  0
    0.8589   -2.5731    0.0000 C   0  0  1  0  0  0  0  0  0  0  0  0
    1.5733   -2.1606    0.0000 O   0  0  0  0  0  0  0  0  0  0  0  0
    1.5733   -1.3356    0.0000 C   0  0  0  0  0  0  0  0  0  0  0  0
    0.8589   -0.9231    0.0000 O   0  0  0  0  0  0  0  0  0  0  0  0
    2.2878   -0.9231    0.0000 C   0  0  0  0  0  0  0  0  0  0  0  0
    2.2878   -0.0981    0.0000 C   0  0  0  0  0  0  0  0  0  0  0  0
    3.0023    0.3144    0.0000 C   0  0  0  0  0  0  0  0  0  0  0  0
    3.0023    1.1394    0.0000 C   0  0  0  0  0  0  0  0  0  0  0  0
    3.7167    1.5519    0.0000 C   0  0  0  0  0  0  0  0  0  0  0  0
    4.4312    1.1394    0.0000 C   0  0  0  0  0  0  0  0  0  0  0  0
    5.1457    1.5519    0.0000 O   0  0  0  0  0  0  0  0  0  0  0  0
    4.4312    0.3144    0.0000 C   0  0  0  0  0  0  0  0  0  0  0  0
    5.1457   -0.0981    0.0000 O   0  0  0  0  0  0  0  0  0  0  0  0
    3.7167   -0.0981    0.0000 C   0  0  0  0  0  0  0  0  0  0  0  0
    3.0023   -3.8106    0.0000 C   0  0  1  0  0  0  0  0  0  0  0  0
    3.0023   -4.6356    0.0000 O   0  0  0  0  0  0  0  0  0  0  0  0
    3.7167   -3.3981    0.0000 C   0  0  1  0  0  0  0  0  0  0  0  0
    4.4312   -3.8106    0.0000 O   0  0  0  0  0  0  0  0  0  0  0  0
    3.7167   -2.5731    0.0000 C   0  0  1  0  0  0  0  0  0  0  0  0
    4.4312   -2.1606    0.0000 O   0  0  0  0  0  0  0  0  0  0  0  0
    3.7167   -1.7481    0.0000 H   0  0  0  0  0  0  0  0  0  0  0  0
    3.7167   -0.9231    0.0000 H   0  0  0  0  0  0  0  0  0  0  0  0
    3.0023   -0.5106    0.0000 H   0  0  0  0  0  0  0  0  0  0  0  0
    0.1444   -2.9856    0.0000 H   0  0  0  0  0  0  0  0  0  0  0  0
    2.2878   -1.7481    0.0000 H   0  0  0  0  0  0  0  0  0  0  0  0
    5.1457   -0.9231    0.0000 H   0  0  0  0  0  0  0  0  0  0  0  0
    3.3042   -1.8586    0.0000 H   0  0  0  0  0  0  0  0  0  0  0  0
   -3.0774   -1.8263    0.0000 H   0  0  0  0  0  0  0  0  0  0  0  0
   -5.5714   -3.8106    0.0000 H   0  0  0  0  0  0  0  0  0  0  0  0
    5.8601    1.1394    0.0000 H   0  0  0  0  0  0  0  0  0  0  0  0
   -1.2846   -0.5106    0.0000 H   0  0  0  0  0  0  0  0  0  0  0  0
    5.1457   -1.7481    0.0000 H   0  0  0  0  0  0  0  0  0  0  0  0
   -4.1424   -4.6356    0.0000 H   0  0  0  0  0  0  0  0  0  0  0  0
    0.8589   -1.7481    0.0000 H   0  0  0  0  0  0  0  0  0  0  0  0
    1.5733   -2.9856    0.0000 H   0  0  0  0  0  0  0  0  0  0  0  0
    3.7167    0.7269    0.0000 H   0  0  0  0  0  0  0  0  0  0  0  0
   -1.2846   -2.9856    0.0000 H   0  0  0  0  0  0  0  0  0  0  0  0
   -5.5714   -1.3356    0.0000 H   0  0  0  0  0  0  0  0  0  0  0  0
   -0.5701   -1.7481    0.0000 H   0  0  0  0  0  0  0  0  0  0  0  0
    0.1444   -0.5106    0.0000 H   0  0  0  0  0  0  0  0  0  0  0  0
    2.2878    1.5519    0.0000 H   0  0  0  0  0  0  0  0  0  0  0  0
    3.7167    2.3769    0.0000 H   0  0  0  0  0  0  0  0  0  0  0  0
   -3.0838   -4.5479    0.0000 H   0  0  0  0  0  0  0  0  0  0  0  0
   -2.3432   -4.5479    0.0000 H   0  0  0  0  0  0  0  0  0  0  0  0
    3.0023   -5.4606    0.0000 H   0  0  0  0  0  0  0  0  0  0  0  0
   -3.4280   -0.9231    0.0000 H   0  0  0  0  0  0  0  0  0  0  0  0
    3.0023   -2.9856    0.0000 H   0  0  0  0  0  0  0  0  0  0  0  0
    5.1457   -4.2231    0.0000 H   0  0  0  0  0  0  0  0  0  0  0  0
    3.7167   -4.2231    0.0000 H   0  0  0  0  0  0  0  0  0  0  0  0
   -2.1423   -2.5856    0.0000 H   0  0  0  0  0  0  0  0  0  0  0  0
   -2.6310   -2.8678    0.0000 H   0  0  0  0  0  0  0  0  0  0  0  0
    2.2878   -4.2231    0.0000 H   0  0  0  0  0  0  0  0  0  0  0  0
    0.8589   -4.2231    0.0000 H   0  0  0  0  0  0  0  0  0  0  0  0
   -0.2681   -5.3501    0.0000 H   0  0  0  0  0  0  0  0  0  0  0  0
    4.4312   -2.9856    0.0000 H   0  0  0  0  0  0  0  0  0  0  0  0
    1.5733    0.3144    0.0000 H   0  0  0  0  0  0  0  0  0  0  0  0
  2  1  1  0  0  0  0
  2  3  1  0  0  0  0
 43  2  1  0  0  0  0
  4  3  1  0  0  0  0
  4  5  1  0  0  0  0
 39  4  1  0  0  0  0
  6  5  1  0  0  0  0
  6  7  1  0  0  0  0
  6 25  1  0  0  0  0
  7  8  1  0  0  0  0
  7  9  1  0  0  0  0
  9 10  1  0  0  0  0
  9 21  1  0  0  0  0
 10 11  1  0  0  0  0
 11 12  1  0  0  0  0
 12 13  1  0  0  0  0
 13 14  4  0  0  0  0
 13 20  4  0  0  0  0
 14 15  4  0  0  0  0
 15 16  4  0  0  0  0
 16 17  1  0  0  0  0
 16 18  4  0  0  0  0
 18 19  1  0  0  0  0
 18 20  4  0  0  0  0
 22 21  1  0  0  0  0
 22 23  1  0  0  0  0
 25 22  1  0  0  0  0
 23 24  1  0  0  0  0
 25 26  1  0  0  0  0
 26 27  1  0  0  0  0
 27 28  2  0  0  0  0
 27 29  1  0  0  0  0
 29 30  2  0  0  0  0
 30 31  1  0  0  0  0
 31 32  4  0  0  0  0
 31 38  4  0  0  0  0
 32 33  4  0  0  0  0
 33 34  4  0  0  0  0
 34 35  1  0  0  0  0
 34 36  4  0  0  0  0
 36 37  1  0  0  0  0
 36 38  4  0  0  0  0
 39 40  1  0  0  0  0
 39 41  1  0  0  0  0
 41 42  1  0  0  0  0
 41 43  1  0  0  0  0
 43 44  1  0  0  0  0
  1 45  1  0  0  0  0
  1 46  1  0  0  0  0
  1 47  1  0  0  0  0
 25 48  1  6  0  0  0
 29 49  1  0  0  0  0
 37 50  1  0  0  0  0
 43 51  1  1  0  0  0
 20 52  1  0  0  0  0
 15 53  1  0  0  0  0
 35 54  1  0  0  0  0
 24 55  1  0  0  0  0
 44 56  1  0  0  0  0
 14 57  1  0  0  0  0
 22 58  1  6  0  0  0
  6 59  1  6  0  0  0
 38 60  1  0  0  0  0
  9 61  1  6  0  0  0
 17 62  1  0  0  0  0
 23 63  1  0  0  0  0
 23 64  1  0  0  0  0
 32 65  1  0  0  0  0
 33 66  1  0  0  0  0
 12 67  1  0  0  0  0
 12 68  1  0  0  0  0
 40 69  1  0  0  0  0
 19 70  1  0  0  0  0
  2 71  1  1  0  0  0
 42 72  1  0  0  0  0
 39 73  1  1  0  0  0
 11 74  1  0  0  0  0
 11 75  1  0  0  0  0
  4 76  1  1  0  0  0
  7 77  1  6  0  0  0
  8 78  1  0  0  0  0
 41 79  1  1  0  0  0
 30 80  1  0  0  0  0
M  END
> <Molecule ChEMBL ID>
CHEMBL444478

> <Class(50)>
1

> <Class(80)>
1

>  <salt>
false

>  <StandardizerResult>
Tautomerize (ID: Tautomerize)
Transform (ID: Transform NO2 (1))
Aromatize (ID: Aromatize)
Wedge Clean (ID: Wedge Clean)
Clean 2D (ID: Clean2D)

$$$$
CHEMBL1201236
  Mrv2010 08032110442D          

 30 30  0  0  1  0            999 V2000
    1.9167   -0.2567    0.0000 C   0  0  0  0  0  0  0  0  0  0  0  0
    1.5042    0.4578    0.0000 C   0  0  0  0  0  0  0  0  0  0  0  0
    0.7898    0.0453    0.0000 C   0  0  0  0  0  0  0  0  0  0  0  0
    0.7898   -0.7797    0.0000 C   0  0  0  0  0  0  0  0  0  0  0  0
    1.5042   -1.1922    0.0000 C   0  0  0  0  0  0  0  0  0  0  0  0
    1.5042   -2.0172    0.0000 C   0  0  0  0  0  0  0  0  0  0  0  0
    0.7898   -2.4297    0.0000 C   0  0  0  0  0  0  0  0  0  0  0  0
    0.7898   -3.2547    0.0000 O   0  0  0  0  0  0  0  0  0  0  0  0
    0.0753   -2.0172    0.0000 C   0  0  0  0  0  0  0  0  0  0  0  0
   -0.6392   -2.4297    0.0000 O   0  0  0  0  0  0  0  0  0  0  0  0
    0.0753   -1.1922    0.0000 C   0  0  0  0  0  0  0  0  0  0  0  0
    1.0917    1.1723    0.0000 N   0  0  0  0  0  0  0  0  0  0  0  0
    0.2667    1.1723    0.0000 N   0  0  0  0  0  0  0  0  0  0  0  0
    2.2187    0.8703    0.0000 C   0  0  0  0  0  0  0  0  0  0  0  0
    2.2187    1.6953    0.0000 O   0  0  0  0  0  0  0  0  0  0  0  0
    2.9332    0.4578    0.0000 O   0  0  0  0  0  0  0  0  0  0  0  0
    2.2187   -2.4297    0.0000 H   0  0  0  0  0  0  0  0  0  0  0  0
    0.3364    0.7346    0.0000 H   0  0  0  0  0  0  0  0  0  0  0  0
   -0.0338    0.0933    0.0000 H   0  0  0  0  0  0  0  0  0  0  0  0
    1.8200   -0.4300    0.0000 H   0  0  0  0  0  0  0  0  0  0  0  0
   -1.3536   -2.0172    0.0000 H   0  0  0  0  0  0  0  0  0  0  0  0
    3.7511    0.5655    0.0000 H   0  0  0  0  0  0  0  0  0  0  0  0
   -0.6392   -0.7797    0.0000 H   0  0  0  0  0  0  0  0  0  0  0  0
    0.0753   -3.6672    0.0000 H   0  0  0  0  0  0  0  0  0  0  0  0
    1.2023   -0.6692    0.0000 H   0  0  0  0  0  0  0  0  0  0  0  0
    2.3292   -0.9712    0.0000 H   0  0  0  0  0  0  0  0  0  0  0  0
    2.6312    0.1558    0.0000 H   0  0  0  0  0  0  0  0  0  0  0  0
    1.5042    1.8867    0.0000 H   0  0  0  0  0  0  0  0  0  0  0  0
    0.0047    1.9545    0.0000 H   0  0  0  0  0  0  0  0  0  0  0  0
   -0.5470    1.3080    0.0000 H   0  0  0  0  0  0  0  0  0  0  0  0
  1  2  1  0  0  0  0
  2  3  1  0  0  0  0
  2 12  1  0  0  0  0
  2 14  1  0  0  0  0
  3  4  1  0  0  0  0
  4  5  4  0  0  0  0
  4 11  4  0  0  0  0
  5  6  4  0  0  0  0
  6  7  4  0  0  0  0
  7  8  1  0  0  0  0
  7  9  4  0  0  0  0
  9 10  1  0  0  0  0
  9 11  4  0  0  0  0
 12 13  1  0  0  0  0
 14 15  2  0  0  0  0
 14 16  1  0  0  0  0
  6 17  1  0  0  0  0
  3 18  1  0  0  0  0
  3 19  1  0  0  0  0
  5 20  1  0  0  0  0
 10 21  1  0  0  0  0
 16 22  1  0  0  0  0
 11 23  1  0  0  0  0
  8 24  1  0  0  0  0
  1 25  1  0  0  0  0
  1 26  1  0  0  0  0
  1 27  1  0  0  0  0
 12 28  1  0  0  0  0
 13 29  1  0  0  0  0
 13 30  1  0  0  0  0
M  END
> <Molecule ChEMBL ID>
CHEMBL1201236

> <Class(50)>
1

> <Class(80)>
1

>  <salt>
false

>  <StandardizerResult>
Tautomerize (ID: Tautomerize)
Transform (ID: Transform NO2 (1))
Aromatize (ID: Aromatize)
Wedge Clean (ID: Wedge Clean)
Clean 2D (ID: Clean2D)

$$$$
CHEMBL1188627
  Mrv2010 08032110442D          

 32 34  0  0  0  0            999 V2000
   -0.4520    1.3560    0.0000 C   0  0  0  0  0  0  0  0  0  0  0  0
    0.2624    0.9435    0.0000 N   0  0  0  0  0  0  0  0  0  0  0  0
    0.2624    0.1185    0.0000 C   0  0  0  0  0  0  0  0  0  0  0  0
    0.9299   -0.3664    0.0000 N   0  0  0  0  0  0  0  0  0  0  0  0
    0.6749   -1.1511    0.0000 C   0  0  0  0  0  0  0  0  0  0  0  0
    1.1599   -1.8185    0.0000 C   0  0  0  0  0  0  0  0  0  0  0  0
    1.9803   -1.7323    0.0000 C   0  0  0  0  0  0  0  0  0  0  0  0
    2.4653   -2.3997    0.0000 C   0  0  0  0  0  0  0  0  0  0  0  0
    2.1297   -3.1534    0.0000 C   0  0  0  0  0  0  0  0  0  0  0  0
    1.3092   -3.2396    0.0000 C   0  0  0  0  0  0  0  0  0  0  0  0
    0.8243   -2.5722    0.0000 C   0  0  0  0  0  0  0  0  0  0  0  0
   -0.1501   -1.1511    0.0000 N   0  0  0  0  0  0  0  0  0  0  0  0
   -0.6350   -1.8185    0.0000 C   0  0  0  0  0  0  0  0  0  0  0  0
   -0.2994   -2.5722    0.0000 C   0  0  0  0  0  0  0  0  0  0  0  0
   -0.7843   -3.2396    0.0000 C   0  0  0  0  0  0  0  0  0  0  0  0
   -1.6048   -3.1534    0.0000 C   0  0  0  0  0  0  0  0  0  0  0  0
   -1.9404   -2.3997    0.0000 C   0  0  0  0  0  0  0  0  0  0  0  0
   -1.4555   -1.7323    0.0000 C   0  0  0  0  0  0  0  0  0  0  0  0
   -0.4050   -0.3664    0.0000 S   0  0  0  0  0  0  0  0  0  0  0  0
    3.2857   -2.3135    0.0000 H   0  0  0  0  0  0  0  0  0  0  0  0
   -0.0395    2.0705    0.0000 H   0  0  0  0  0  0  0  0  0  0  0  0
   -1.1665    1.7685    0.0000 H   0  0  0  0  0  0  0  0  0  0  0  0
   -0.8645    0.6415    0.0000 H   0  0  0  0  0  0  0  0  0  0  0  0
    2.3159   -0.9786    0.0000 H   0  0  0  0  0  0  0  0  0  0  0  0
   -1.7910   -0.9786    0.0000 H   0  0  0  0  0  0  0  0  0  0  0  0
    2.6146   -3.8208    0.0000 H   0  0  0  0  0  0  0  0  0  0  0  0
    0.0038   -2.6584    0.0000 H   0  0  0  0  0  0  0  0  0  0  0  0
    0.2411   -1.9489    0.0000 H   0  0  0  0  0  0  0  0  0  0  0  0
   -2.0897   -3.8208    0.0000 H   0  0  0  0  0  0  0  0  0  0  0  0
    0.9737   -3.9933    0.0000 H   0  0  0  0  0  0  0  0  0  0  0  0
   -2.7609   -2.3135    0.0000 H   0  0  0  0  0  0  0  0  0  0  0  0
   -0.4488   -3.9933    0.0000 H   0  0  0  0  0  0  0  0  0  0  0  0
  1  2  1  0  0  0  0
  2  3  2  0  0  0  0
  3  4  1  0  0  0  0
  3 19  1  0  0  0  0
  4  5  2  0  0  0  0
  5  6  1  0  0  0  0
  5 12  1  0  0  0  0
  6  7  4  0  0  0  0
  6 11  4  0  0  0  0
  7  8  4  0  0  0  0
  8  9  4  0  0  0  0
  9 10  4  0  0  0  0
 10 11  4  0  0  0  0
 12 13  1  0  0  0  0
 12 19  1  0  0  0  0
 13 14  4  0  0  0  0
 13 18  4  0  0  0  0
 14 15  4  0  0  0  0
 15 16  4  0  0  0  0
 16 17  4  0  0  0  0
 17 18  4  0  0  0  0
  8 20  1  0  0  0  0
  1 21  1  0  0  0  0
  1 22  1  0  0  0  0
  1 23  1  0  0  0  0
  7 24  1  0  0  0  0
 18 25  1  0  0  0  0
  9 26  1  0  0  0  0
 11 27  1  0  0  0  0
 14 28  1  0  0  0  0
 16 29  1  0  0  0  0
 10 30  1  0  0  0  0
 17 31  1  0  0  0  0
 15 32  1  0  0  0  0
M  END
> <Molecule ChEMBL ID>
CHEMBL1188627

> <Class(50)>
1

> <Class(80)>
1

>  <salt>
false

>  <StandardizerResult>
Tautomerize (ID: Tautomerize)
Neutralize (ID: Neutralize)
Aromatize (ID: Aromatize)
Wedge Clean (ID: Wedge Clean)
Clean 2D (ID: Clean2D)

$$$$
CHEMBL4303154
  Mrv2010 08032110442D          

 70 72  0  0  1  0            999 V2000
    1.5928   -0.9373    0.0000 C   0  0  0  0  0  0  0  0  0  0  0  0
    1.5928   -0.1123    0.0000 C   0  0  0  0  0  0  0  0  0  0  0  0
    0.8783    0.3002    0.0000 C   0  0  0  0  0  0  0  0  0  0  0  0
    0.1639   -0.1123    0.0000 C   0  0  1  0  0  0  0  0  0  0  0  0
    0.1639   -0.9373    0.0000 O   0  0  0  0  0  0  0  0  0  0  0  0
   -0.5506   -1.3498    0.0000 C   0  0  1  0  0  0  0  0  0  0  0  0
   -0.5506   -2.1748    0.0000 O   0  0  0  0  0  0  0  0  0  0  0  0
   -1.2651   -2.5873    0.0000 C   0  0  1  0  0  0  0  0  0  0  0  0
   -1.2651   -3.4123    0.0000 C   0  0  0  0  0  0  0  0  0  0  0  0
   -1.9795   -3.8248    0.0000 O   0  0  0  0  0  0  0  0  0  0  0  0
   -1.9795   -2.1748    0.0000 C   0  0  1  0  0  0  0  0  0  0  0  0
   -2.6940   -2.5873    0.0000 O   0  0  0  0  0  0  0  0  0  0  0  0
   -1.9795   -1.3498    0.0000 C   0  0  1  0  0  0  0  0  0  0  0  0
   -2.6940   -0.9373    0.0000 O   0  0  0  0  0  0  0  0  0  0  0  0
   -1.2651   -0.9373    0.0000 C   0  0  1  0  0  0  0  0  0  0  0  0
   -1.2651   -0.1123    0.0000 O   0  0  0  0  0  0  0  0  0  0  0  0
   -0.5506    0.3002    0.0000 O   0  0  0  0  0  0  0  0  0  0  0  0
   -0.5506    1.1252    0.0000 C   0  0  0  0  0  0  0  0  0  0  0  0
    0.1639    1.5377    0.0000 C   0  0  0  0  0  0  0  0  0  0  0  0
    0.1639    2.3627    0.0000 C   0  0  0  0  0  0  0  0  0  0  0  0
    0.8783    2.7752    0.0000 O   0  0  0  0  0  0  0  0  0  0  0  0
   -0.5506    2.7752    0.0000 O   0  0  0  0  0  0  0  0  0  0  0  0
   -0.5506    3.6002    0.0000 C   0  0  0  0  0  0  0  0  0  0  0  0
    0.8783    1.1252    0.0000 C   0  0  1  0  0  0  0  0  0  0  0  0
    1.5928    1.5377    0.0000 C   0  0  0  0  0  0  0  0  0  0  0  0
    2.3073    1.1252    0.0000 C   0  0  0  0  0  0  0  0  0  0  0  0
    2.3073    0.3002    0.0000 O   0  0  0  0  0  0  0  0  0  0  0  0
    3.0218    1.5377    0.0000 O   0  0  0  0  0  0  0  0  0  0  0  0
    3.7362    1.1252    0.0000 C   0  0  0  0  0  0  0  0  0  0  0  0
    4.4507    1.5377    0.0000 C   0  0  0  0  0  0  0  0  0  0  0  0
    5.1652    1.1252    0.0000 C   0  0  0  0  0  0  0  0  0  0  0  0
    5.8796    1.5377    0.0000 C   0  0  0  0  0  0  0  0  0  0  0  0
    6.5941    1.1252    0.0000 C   0  0  0  0  0  0  0  0  0  0  0  0
    6.5941    0.3002    0.0000 C   0  0  0  0  0  0  0  0  0  0  0  0
    7.3086   -0.1123    0.0000 O   0  0  0  0  0  0  0  0  0  0  0  0
    5.8796   -0.1123    0.0000 C   0  0  0  0  0  0  0  0  0  0  0  0
    5.8796   -0.9373    0.0000 O   0  0  0  0  0  0  0  0  0  0  0  0
    5.1652    0.3002    0.0000 C   0  0  0  0  0  0  0  0  0  0  0  0
   -1.2651    1.5377    0.0000 H   0  0  0  0  0  0  0  0  0  0  0  0
   -2.3920   -4.5393    0.0000 H   0  0  0  0  0  0  0  0  0  0  0  0
    0.7678   -0.9373    0.0000 H   0  0  0  0  0  0  0  0  0  0  0  0
    1.5928   -1.7623    0.0000 H   0  0  0  0  0  0  0  0  0  0  0  0
    2.4178   -0.9373    0.0000 H   0  0  0  0  0  0  0  0  0  0  0  0
   -1.9795   -2.9998    0.0000 H   0  0  0  0  0  0  0  0  0  0  0  0
    3.3660    0.3880    0.0000 H   0  0  0  0  0  0  0  0  0  0  0  0
    4.1065    0.3880    0.0000 H   0  0  0  0  0  0  0  0  0  0  0  0
    5.1652   -1.3498    0.0000 H   0  0  0  0  0  0  0  0  0  0  0  0
    5.8796    2.3627    0.0000 H   0  0  0  0  0  0  0  0  0  0  0  0
   -1.2651   -1.7623    0.0000 H   0  0  0  0  0  0  0  0  0  0  0  0
   -2.6940   -1.7623    0.0000 H   0  0  0  0  0  0  0  0  0  0  0  0
    0.2744    3.6002    0.0000 H   0  0  0  0  0  0  0  0  0  0  0  0
   -0.5506    4.4252    0.0000 H   0  0  0  0  0  0  0  0  0  0  0  0
   -1.3756    3.6002    0.0000 H   0  0  0  0  0  0  0  0  0  0  0  0
   -0.5506   -0.5248    0.0000 H   0  0  0  0  0  0  0  0  0  0  0  0
    2.3073   -0.5248    0.0000 H   0  0  0  0  0  0  0  0  0  0  0  0
   -3.4085   -0.5248    0.0000 H   0  0  0  0  0  0  0  0  0  0  0  0
    0.8783   -0.5248    0.0000 H   0  0  0  0  0  0  0  0  0  0  0  0
   -1.6776    0.6022    0.0000 H   0  0  0  0  0  0  0  0  0  0  0  0
    1.9631    2.2750    0.0000 H   0  0  0  0  0  0  0  0  0  0  0  0
    1.2226    2.2750    0.0000 H   0  0  0  0  0  0  0  0  0  0  0  0
    7.3086    1.5377    0.0000 H   0  0  0  0  0  0  0  0  0  0  0  0
    4.8210    2.2750    0.0000 H   0  0  0  0  0  0  0  0  0  0  0  0
    4.0804    2.2750    0.0000 H   0  0  0  0  0  0  0  0  0  0  0  0
    7.3086   -0.9373    0.0000 H   0  0  0  0  0  0  0  0  0  0  0  0
   -3.4085   -2.9998    0.0000 H   0  0  0  0  0  0  0  0  0  0  0  0
   -1.9795   -0.5248    0.0000 H   0  0  0  0  0  0  0  0  0  0  0  0
    1.5928    0.7127    0.0000 H   0  0  0  0  0  0  0  0  0  0  0  0
    4.4507   -0.1123    0.0000 H   0  0  0  0  0  0  0  0  0  0  0  0
   -0.8117   -4.1016    0.0000 H   0  0  0  0  0  0  0  0  0  0  0  0
   -0.4415   -3.4603    0.0000 H   0  0  0  0  0  0  0  0  0  0  0  0
  1  2  1  0  0  0  0
  2  3  2  0  0  0  0
  4  3  1  0  0  0  0
 24  3  1  0  0  0  0
  4  5  1  0  0  0  0
  4 17  1  0  0  0  0
  6  5  1  0  0  0  0
  6  7  1  0  0  0  0
 15  6  1  0  0  0  0
  8  7  1  0  0  0  0
  8  9  1  0  0  0  0
 11  8  1  0  0  0  0
  9 10  1  0  0  0  0
 11 12  1  0  0  0  0
 11 13  1  0  0  0  0
 13 14  1  0  0  0  0
 13 15  1  0  0  0  0
 15 16  1  0  0  0  0
 17 18  1  0  0  0  0
 18 19  2  0  0  0  0
 19 20  1  0  0  0  0
 24 19  1  0  0  0  0
 20 21  2  0  0  0  0
 20 22  1  0  0  0  0
 22 23  1  0  0  0  0
 24 25  1  0  0  0  0
 25 26  1  0  0  0  0
 26 27  2  0  0  0  0
 26 28  1  0  0  0  0
 28 29  1  0  0  0  0
 29 30  1  0  0  0  0
 30 31  1  0  0  0  0
 31 32  4  0  0  0  0
 31 38  4  0  0  0  0
 32 33  4  0  0  0  0
 33 34  4  0  0  0  0
 34 35  1  0  0  0  0
 34 36  4  0  0  0  0
 36 37  1  0  0  0  0
 36 38  4  0  0  0  0
 18 39  1  0  0  0  0
 10 40  1  0  0  0  0
  1 41  1  0  0  0  0
  1 42  1  0  0  0  0
  1 43  1  0  0  0  0
  8 44  1  6  0  0  0
 29 45  1  0  0  0  0
 29 46  1  0  0  0  0
 37 47  1  0  0  0  0
 32 48  1  0  0  0  0
 15 49  1  6  0  0  0
 11 50  1  6  0  0  0
 23 51  1  0  0  0  0
 23 52  1  0  0  0  0
 23 53  1  0  0  0  0
  6 54  1  6  0  0  0
  2 55  1  0  0  0  0
 14 56  1  0  0  0  0
  4 57  1  6  0  0  0
 16 58  1  0  0  0  0
 25 59  1  0  0  0  0
 25 60  1  0  0  0  0
 33 61  1  0  0  0  0
 30 62  1  0  0  0  0
 30 63  1  0  0  0  0
 35 64  1  0  0  0  0
 12 65  1  0  0  0  0
 13 66  1  6  0  0  0
 24 67  1  6  0  0  0
 38 68  1  0  0  0  0
  9 69  1  0  0  0  0
  9 70  1  0  0  0  0
M  END
> <Molecule ChEMBL ID>
CHEMBL4303154

> <Class(50)>
1

> <Class(80)>
1

>  <salt>
false

>  <StandardizerResult>
Tautomerize (ID: Tautomerize)
Transform (ID: Transform NO2 (1))
Aromatize (ID: Aromatize)
Wedge Clean (ID: Wedge Clean)
Clean 2D (ID: Clean2D)

$$$$
CHEMBL1201746
  Mrv2010 08032110442D          

 58 60  0  0  1  0            999 V2000
   -3.7812   -0.0175    0.0000 C   0  0  0  0  0  0  0  0  0  0  0  0
   -3.7812   -0.8425    0.0000 C   0  0  0  0  0  0  0  0  0  0  0  0
   -3.7812   -1.6675    0.0000 C   0  0  0  0  0  0  0  0  0  0  0  0
   -3.0668   -2.0800    0.0000 C   0  0  1  0  0  0  0  0  0  0  0  0
   -3.0668   -2.9050    0.0000 C   0  0  0  0  0  0  0  0  0  0  0  0
   -3.7812   -3.3175    0.0000 C   0  0  0  0  0  0  0  0  0  0  0  0
   -3.7812   -4.1425    0.0000 C   0  0  0  0  0  0  0  0  0  0  0  0
   -4.4957   -4.5550    0.0000 N   0  0  0  0  0  0  0  0  0  0  0  0
   -5.2102   -4.1425    0.0000 C   0  0  0  0  0  0  0  0  0  0  0  0
   -5.9246   -4.5550    0.0000 N   0  0  0  0  0  0  0  0  0  0  0  0
   -6.6391   -4.1425    0.0000 C   0  0  0  0  0  0  0  0  0  0  0  0
   -7.3536   -4.5550    0.0000 N   0  0  0  0  0  0  0  0  0  0  0  0
   -6.6391   -3.3175    0.0000 N   0  0  0  0  0  0  0  0  0  0  0  0
   -5.9246   -2.9050    0.0000 C   0  0  0  0  0  0  0  0  0  0  0  0
   -5.9246   -2.0800    0.0000 N   0  0  0  0  0  0  0  0  0  0  0  0
   -5.2102   -3.3175    0.0000 C   0  0  0  0  0  0  0  0  0  0  0  0
   -4.4957   -2.9050    0.0000 N   0  0  0  0  0  0  0  0  0  0  0  0
   -2.3523   -1.6675    0.0000 C   0  0  0  0  0  0  0  0  0  0  0  0
   -2.3523   -0.8425    0.0000 C   0  0  0  0  0  0  0  0  0  0  0  0
   -1.6378   -0.4300    0.0000 C   0  0  0  0  0  0  0  0  0  0  0  0
   -0.9233   -0.8425    0.0000 C   0  0  0  0  0  0  0  0  0  0  0  0
   -0.2089   -0.4300    0.0000 C   0  0  0  0  0  0  0  0  0  0  0  0
   -0.2089    0.3950    0.0000 O   0  0  0  0  0  0  0  0  0  0  0  0
    0.5056   -0.8425    0.0000 N   0  0  0  0  0  0  0  0  0  0  0  0
    1.2201   -0.4300    0.0000 C   0  0  1  0  0  0  0  0  0  0  0  0
    1.9345   -0.8425    0.0000 C   0  0  0  0  0  0  0  0  0  0  0  0
    2.6490   -0.4300    0.0000 C   0  0  0  0  0  0  0  0  0  0  0  0
    3.3635   -0.8425    0.0000 C   0  0  0  0  0  0  0  0  0  0  0  0
    4.0780   -0.4300    0.0000 O   0  0  0  0  0  0  0  0  0  0  0  0
    3.3635   -1.6675    0.0000 O   0  0  0  0  0  0  0  0  0  0  0  0
    1.2201    0.3950    0.0000 C   0  0  0  0  0  0  0  0  0  0  0  0
    1.9345    0.8075    0.0000 O   0  0  0  0  0  0  0  0  0  0  0  0
    0.5056    0.8075    0.0000 O   0  0  0  0  0  0  0  0  0  0  0  0
   -0.9233   -1.6675    0.0000 C   0  0  0  0  0  0  0  0  0  0  0  0
   -1.6378   -2.0800    0.0000 C   0  0  0  0  0  0  0  0  0  0  0  0
    0.5056    1.6325    0.0000 H   0  0  0  0  0  0  0  0  0  0  0  0
    0.5056   -1.6675    0.0000 H   0  0  0  0  0  0  0  0  0  0  0  0
   -1.6378    0.3950    0.0000 H   0  0  0  0  0  0  0  0  0  0  0  0
   -3.0668   -0.4300    0.0000 H   0  0  0  0  0  0  0  0  0  0  0  0
   -0.2089   -2.0800    0.0000 H   0  0  0  0  0  0  0  0  0  0  0  0
   -3.0668   -4.5550    0.0000 H   0  0  0  0  0  0  0  0  0  0  0  0
    3.8350   -2.3445    0.0000 H   0  0  0  0  0  0  0  0  0  0  0  0
   -8.0681   -4.1425    0.0000 H   0  0  0  0  0  0  0  0  0  0  0  0
   -7.3536   -5.3800    0.0000 H   0  0  0  0  0  0  0  0  0  0  0  0
    1.2201   -1.2550    0.0000 H   0  0  0  0  0  0  0  0  0  0  0  0
    2.0778   -1.6549    0.0000 H   0  0  0  0  0  0  0  0  0  0  0  0
    2.5665   -1.3728    0.0000 H   0  0  0  0  0  0  0  0  0  0  0  0
   -3.7812    0.8075    0.0000 H   0  0  0  0  0  0  0  0  0  0  0  0
   -3.7812   -2.4925    0.0000 H   0  0  0  0  0  0  0  0  0  0  0  0
   -2.6134   -3.5942    0.0000 H   0  0  0  0  0  0  0  0  0  0  0  0
   -2.2432   -2.9529    0.0000 H   0  0  0  0  0  0  0  0  0  0  0  0
    3.0193    0.3073    0.0000 H   0  0  0  0  0  0  0  0  0  0  0  0
    2.2788    0.3073    0.0000 H   0  0  0  0  0  0  0  0  0  0  0  0
   -4.6048   -1.7154    0.0000 H   0  0  0  0  0  0  0  0  0  0  0  0
   -4.2346   -2.3567    0.0000 H   0  0  0  0  0  0  0  0  0  0  0  0
   -1.6378   -2.9050    0.0000 H   0  0  0  0  0  0  0  0  0  0  0  0
   -5.2102   -1.6675    0.0000 H   0  0  0  0  0  0  0  0  0  0  0  0
   -6.6391   -1.6675    0.0000 H   0  0  0  0  0  0  0  0  0  0  0  0
  1  2  3  0  0  0  0
  2  3  1  0  0  0  0
  4  3  1  0  0  0  0
  4  5  1  0  0  0  0
  4 18  1  0  0  0  0
  5  6  1  0  0  0  0
  6  7  4  0  0  0  0
  6 17  4  0  0  0  0
  7  8  4  0  0  0  0
  8  9  4  0  0  0  0
  9 10  4  0  0  0  0
  9 16  4  0  0  0  0
 10 11  4  0  0  0  0
 11 12  1  0  0  0  0
 11 13  4  0  0  0  0
 13 14  4  0  0  0  0
 14 15  1  0  0  0  0
 14 16  4  0  0  0  0
 16 17  4  0  0  0  0
 18 19  4  0  0  0  0
 18 35  4  0  0  0  0
 19 20  4  0  0  0  0
 20 21  4  0  0  0  0
 21 22  1  0  0  0  0
 21 34  4  0  0  0  0
 22 23  2  0  0  0  0
 22 24  1  0  0  0  0
 25 24  1  0  0  0  0
 25 26  1  0  0  0  0
 25 31  1  0  0  0  0
 26 27  1  0  0  0  0
 27 28  1  0  0  0  0
 28 29  2  0  0  0  0
 28 30  1  0  0  0  0
 31 32  2  0  0  0  0
 31 33  1  0  0  0  0
 34 35  4  0  0  0  0
 33 36  1  0  0  0  0
 24 37  1  0  0  0  0
 20 38  1  0  0  0  0
 19 39  1  0  0  0  0
 34 40  1  0  0  0  0
  7 41  1  0  0  0  0
 30 42  1  0  0  0  0
 12 43  1  0  0  0  0
 12 44  1  0  0  0  0
 25 45  1  1  0  0  0
 26 46  1  0  0  0  0
 26 47  1  0  0  0  0
  1 48  1  0  0  0  0
  4 49  1  1  0  0  0
  5 50  1  0  0  0  0
  5 51  1  0  0  0  0
 27 52  1  0  0  0  0
 27 53  1  0  0  0  0
  3 54  1  0  0  0  0
  3 55  1  0  0  0  0
 35 56  1  0  0  0  0
 15 57  1  0  0  0  0
 15 58  1  0  0  0  0
M  END
> <Molecule ChEMBL ID>
CHEMBL1201746

> <Class(50)>
1

> <Class(80)>
1

>  <salt>
false

>  <StandardizerResult>
Tautomerize (ID: Tautomerize)
Transform (ID: Transform NO2 (1))
Aromatize (ID: Aromatize)
Wedge Clean (ID: Wedge Clean)
Clean 2D (ID: Clean2D)

$$$$
CHEMBL3392049
  Mrv2010 08032110442D          

 13 13  0  0  0  0            999 V2000
    0.1037    1.4364    0.0000 O   0  0  0  0  0  0  0  0  0  0  0  0
    0.1037    0.6114    0.0000 N   0  0  0  0  0  0  0  0  0  0  0  0
    0.8182    0.1989    0.0000 C   0  0  0  0  0  0  0  0  0  0  0  0
    0.8182   -0.6261    0.0000 C   0  0  0  0  0  0  0  0  0  0  0  0
    0.1037   -1.0386    0.0000 C   0  0  0  0  0  0  0  0  0  0  0  0
   -0.6108   -0.6261    0.0000 C   0  0  0  0  0  0  0  0  0  0  0  0
   -0.6108    0.1989    0.0000 C   0  0  0  0  0  0  0  0  0  0  0  0
   -1.3252    0.6114    0.0000 S   0  0  0  0  0  0  0  0  0  0  0  0
   -1.3252   -1.0386    0.0000 H   0  0  0  0  0  0  0  0  0  0  0  0
    0.1037   -1.8636    0.0000 H   0  0  0  0  0  0  0  0  0  0  0  0
    1.5326    0.6114    0.0000 H   0  0  0  0  0  0  0  0  0  0  0  0
    1.5326   -1.0386    0.0000 H   0  0  0  0  0  0  0  0  0  0  0  0
    0.8182    1.8489    0.0000 H   0  0  0  0  0  0  0  0  0  0  0  0
  1  2  1  0  0  0  0
  2  3  1  0  0  0  0
  2  7  1  0  0  0  0
  3  4  2  0  0  0  0
  4  5  1  0  0  0  0
  5  6  2  0  0  0  0
  6  7  1  0  0  0  0
  7  8  2  0  0  0  0
  6  9  1  0  0  0  0
  5 10  1  0  0  0  0
  3 11  1  0  0  0  0
  4 12  1  0  0  0  0
  1 13  1  0  0  0  0
M  END
> <Molecule ChEMBL ID>
CHEMBL3392049

> <Class(50)>
1

> <Class(80)>
1

>  <salt>
true

>  <StandardizerResult>
Tautomerize (ID: Tautomerize)
Neutralize (ID: Neutralize)
Add Explicit Hydrogens (ID: AddExplicitH)
Wedge Clean (ID: Wedge Clean)
Clean 2D (ID: Clean2D)

$$$$
CHEMBL271023
  Mrv2010 08032110442D          

 24 26  0  0  1  0            999 V2000
    0.7098    1.7662    0.0000 O   0  0  0  0  0  0  0  0  0  0  0  0
   -0.0047    2.1787    0.0000 S   0  0  0  0  0  0  0  0  0  0  0  0
   -0.0047    3.0037    0.0000 C   0  0  0  0  0  0  0  0  0  0  0  0
   -0.7191    3.4162    0.0000 C   0  0  0  0  0  0  0  0  0  0  0  0
   -0.7191    4.2412    0.0000 C   0  0  0  0  0  0  0  0  0  0  0  0
   -0.0047    4.6537    0.0000 C   0  0  0  0  0  0  0  0  0  0  0  0
    0.7098    4.2412    0.0000 C   0  0  0  0  0  0  0  0  0  0  0  0
    0.7098    3.4162    0.0000 C   0  0  0  0  0  0  0  0  0  0  0  0
   -0.7191    1.7662    0.0000 C   0  0  0  0  0  0  0  0  0  0  0  0
   -0.7191    0.9412    0.0000 C   0  0  0  0  0  0  0  0  0  0  0  0
   -1.4336    0.5287    0.0000 C   0  0  0  0  0  0  0  0  0  0  0  0
   -2.1481    0.9412    0.0000 C   0  0  0  0  0  0  0  0  0  0  0  0
   -2.9327    0.6863    0.0000 N   0  0  0  0  0  0  0  0  0  0  0  0
   -3.4176    1.3537    0.0000 N   0  0  0  0  0  0  0  0  0  0  0  0
   -2.9327    2.0212    0.0000 N   0  0  0  0  0  0  0  0  0  0  0  0
   -2.1481    1.7662    0.0000 N   0  0  0  0  0  0  0  0  0  0  0  0
   -1.4336    2.1787    0.0000 N   0  0  0  0  0  0  0  0  0  0  0  0
   -1.4336    4.6537    0.0000 H   0  0  0  0  0  0  0  0  0  0  0  0
   -1.4336   -0.2963    0.0000 H   0  0  0  0  0  0  0  0  0  0  0  0
    1.4243    3.0037    0.0000 H   0  0  0  0  0  0  0  0  0  0  0  0
    1.4243    4.6537    0.0000 H   0  0  0  0  0  0  0  0  0  0  0  0
   -1.4336    3.0037    0.0000 H   0  0  0  0  0  0  0  0  0  0  0  0
   -0.0047    0.5287    0.0000 H   0  0  0  0  0  0  0  0  0  0  0  0
   -0.0047    5.4787    0.0000 H   0  0  0  0  0  0  0  0  0  0  0  0
  1  2  2  0  0  0  0
  2  3  1  0  0  0  0
  2  9  1  0  0  0  0
  3  4  4  0  0  0  0
  3  8  4  0  0  0  0
  4  5  4  0  0  0  0
  5  6  4  0  0  0  0
  6  7  4  0  0  0  0
  7  8  4  0  0  0  0
  9 10  4  0  0  0  0
  9 17  4  0  0  0  0
 10 11  4  0  0  0  0
 11 12  4  0  0  0  0
 12 13  4  0  0  0  0
 12 16  4  0  0  0  0
 13 14  4  0  0  0  0
 14 15  4  0  0  0  0
 15 16  4  0  0  0  0
 16 17  4  0  0  0  0
  5 18  1  0  0  0  0
 11 19  1  0  0  0  0
  8 20  1  0  0  0  0
  7 21  1  0  0  0  0
  4 22  1  0  0  0  0
 10 23  1  0  0  0  0
  6 24  1  0  0  0  0
M  END
> <Molecule ChEMBL ID>
CHEMBL271023

> <Class(50)>
1

> <Class(80)>
1

>  <salt>
false

>  <StandardizerResult>
Tautomerize (ID: Tautomerize)
Transform (ID: Transform NO2 (1))
Aromatize (ID: Aromatize)
Wedge Clean (ID: Wedge Clean)
Clean 2D (ID: Clean2D)

$$$$
CHEMBL131921
  Mrv2010 08032110442D          

 33 35  0  0  0  0            999 V2000
   -2.8401   -3.0333    0.0000 C   0  0  0  0  0  0  0  0  0  0  0  0
   -2.8401   -2.2083    0.0000 O   0  0  0  0  0  0  0  0  0  0  0  0
   -2.1256   -1.7958    0.0000 C   0  0  0  0  0  0  0  0  0  0  0  0
   -2.1256   -0.9708    0.0000 C   0  0  0  0  0  0  0  0  0  0  0  0
   -1.4112   -0.5583    0.0000 C   0  0  0  0  0  0  0  0  0  0  0  0
   -0.6967   -0.9708    0.0000 C   0  0  0  0  0  0  0  0  0  0  0  0
    0.0178   -0.5583    0.0000 C   0  0  0  0  0  0  0  0  0  0  0  0
    0.0178    0.2667    0.0000 C   0  0  0  0  0  0  0  0  0  0  0  0
    0.7323    0.6792    0.0000 O   0  0  0  0  0  0  0  0  0  0  0  0
    1.4467    0.2667    0.0000 C   0  0  0  0  0  0  0  0  0  0  0  0
    2.1612    0.6792    0.0000 C   0  0  0  0  0  0  0  0  0  0  0  0
    2.8757    0.2667    0.0000 C   0  0  0  0  0  0  0  0  0  0  0  0
    3.5901    0.6792    0.0000 O   0  0  0  0  0  0  0  0  0  0  0  0
    2.8757   -0.5583    0.0000 C   0  0  0  0  0  0  0  0  0  0  0  0
    2.1612   -0.9708    0.0000 C   0  0  0  0  0  0  0  0  0  0  0  0
    2.1612   -1.7958    0.0000 O   0  0  0  0  0  0  0  0  0  0  0  0
    1.4467   -0.5583    0.0000 C   0  0  0  0  0  0  0  0  0  0  0  0
    0.7323   -0.9708    0.0000 C   0  0  0  0  0  0  0  0  0  0  0  0
    0.7323   -1.7958    0.0000 O   0  0  0  0  0  0  0  0  0  0  0  0
   -0.6967   -1.7958    0.0000 C   0  0  0  0  0  0  0  0  0  0  0  0
   -1.4112   -2.2083    0.0000 C   0  0  0  0  0  0  0  0  0  0  0  0
   -1.4112    0.2667    0.0000 H   0  0  0  0  0  0  0  0  0  0  0  0
   -1.4112   -3.0333    0.0000 H   0  0  0  0  0  0  0  0  0  0  0  0
    1.4467   -2.2083    0.0000 H   0  0  0  0  0  0  0  0  0  0  0  0
    2.1612    1.5042    0.0000 H   0  0  0  0  0  0  0  0  0  0  0  0
   -2.8401   -0.5583    0.0000 H   0  0  0  0  0  0  0  0  0  0  0  0
   -3.6651   -3.0333    0.0000 H   0  0  0  0  0  0  0  0  0  0  0  0
   -2.8401   -3.8583    0.0000 H   0  0  0  0  0  0  0  0  0  0  0  0
   -2.0151   -3.0333    0.0000 H   0  0  0  0  0  0  0  0  0  0  0  0
    0.0178   -2.2083    0.0000 H   0  0  0  0  0  0  0  0  0  0  0  0
    3.5901   -0.9708    0.0000 H   0  0  0  0  0  0  0  0  0  0  0  0
   -0.6967    0.6792    0.0000 H   0  0  0  0  0  0  0  0  0  0  0  0
    4.3046    0.2667    0.0000 H   0  0  0  0  0  0  0  0  0  0  0  0
  1  2  1  0  0  0  0
  2  3  1  0  0  0  0
  3  4  4  0  0  0  0
  3 21  4  0  0  0  0
  4  5  4  0  0  0  0
  5  6  4  0  0  0  0
  6  7  1  0  0  0  0
  6 20  4  0  0  0  0
  7  8  2  0  0  0  0
  7 18  1  0  0  0  0
  8  9  1  0  0  0  0
  9 10  1  0  0  0  0
 10 11  4  0  0  0  0
 10 17  4  0  0  0  0
 11 12  4  0  0  0  0
 12 13  1  0  0  0  0
 12 14  4  0  0  0  0
 14 15  4  0  0  0  0
 15 16  1  0  0  0  0
 15 17  4  0  0  0  0
 17 18  1  0  0  0  0
 18 19  2  0  0  0  0
 20 21  4  0  0  0  0
  5 22  1  0  0  0  0
 21 23  1  0  0  0  0
 16 24  1  0  0  0  0
 11 25  1  0  0  0  0
  4 26  1  0  0  0  0
  1 27  1  0  0  0  0
  1 28  1  0  0  0  0
  1 29  1  0  0  0  0
 20 30  1  0  0  0  0
 14 31  1  0  0  0  0
  8 32  1  0  0  0  0
 13 33  1  0  0  0  0
M  END
> <Molecule ChEMBL ID>
CHEMBL131921

> <Class(50)>
0

> <Class(80)>
0

>  <salt>
false

>  <StandardizerResult>
Tautomerize (ID: Tautomerize)
Neutralize (ID: Neutralize)
Aromatize (ID: Aromatize)
Wedge Clean (ID: Wedge Clean)
Clean 2D (ID: Clean2D)

$$$$
CHEMBL491174
  Mrv2010 08032110442D          

 33 35  0  0  0  0            999 V2000
   -4.3713   -1.7936    0.0000 C   0  0  0  0  0  0  0  0  0  0  0  0
   -4.3713   -0.9686    0.0000 O   0  0  0  0  0  0  0  0  0  0  0  0
   -3.6568   -0.5561    0.0000 C   0  0  0  0  0  0  0  0  0  0  0  0
   -3.6568    0.2689    0.0000 C   0  0  0  0  0  0  0  0  0  0  0  0
   -2.9423    0.6814    0.0000 C   0  0  0  0  0  0  0  0  0  0  0  0
   -2.9423    1.5064    0.0000 O   0  0  0  0  0  0  0  0  0  0  0  0
   -2.2279    0.2689    0.0000 C   0  0  0  0  0  0  0  0  0  0  0  0
   -1.5134    0.6814    0.0000 C   0  0  0  0  0  0  0  0  0  0  0  0
   -1.5134    1.5064    0.0000 O   0  0  0  0  0  0  0  0  0  0  0  0
   -0.7989    0.2689    0.0000 C   0  0  0  0  0  0  0  0  0  0  0  0
   -0.0844    0.6814    0.0000 C   0  0  0  0  0  0  0  0  0  0  0  0
   -0.0844    1.5064    0.0000 C   0  0  0  0  0  0  0  0  0  0  0  0
    0.6300    1.9189    0.0000 C   0  0  0  0  0  0  0  0  0  0  0  0
    1.3445    1.5064    0.0000 C   0  0  0  0  0  0  0  0  0  0  0  0
    2.0590    1.9189    0.0000 O   0  0  0  0  0  0  0  0  0  0  0  0
    1.3445    0.6814    0.0000 C   0  0  0  0  0  0  0  0  0  0  0  0
    0.6300    0.2689    0.0000 C   0  0  0  0  0  0  0  0  0  0  0  0
   -0.7989   -0.5561    0.0000 C   0  0  0  0  0  0  0  0  0  0  0  0
   -1.5134   -0.9686    0.0000 O   0  0  0  0  0  0  0  0  0  0  0  0
   -2.2279   -0.5561    0.0000 C   0  0  0  0  0  0  0  0  0  0  0  0
   -2.9423   -0.9686    0.0000 C   0  0  0  0  0  0  0  0  0  0  0  0
   -2.9423   -1.7936    0.0000 H   0  0  0  0  0  0  0  0  0  0  0  0
   -5.1963   -1.7936    0.0000 H   0  0  0  0  0  0  0  0  0  0  0  0
   -4.3713   -2.6186    0.0000 H   0  0  0  0  0  0  0  0  0  0  0  0
   -3.5463   -1.7936    0.0000 H   0  0  0  0  0  0  0  0  0  0  0  0
   -0.7989    1.9189    0.0000 H   0  0  0  0  0  0  0  0  0  0  0  0
   -2.2279    1.9189    0.0000 H   0  0  0  0  0  0  0  0  0  0  0  0
    2.7734    1.5064    0.0000 H   0  0  0  0  0  0  0  0  0  0  0  0
    2.0590    0.2689    0.0000 H   0  0  0  0  0  0  0  0  0  0  0  0
    0.6300    2.7439    0.0000 H   0  0  0  0  0  0  0  0  0  0  0  0
   -0.0844   -0.9686    0.0000 H   0  0  0  0  0  0  0  0  0  0  0  0
   -4.3713    0.6814    0.0000 H   0  0  0  0  0  0  0  0  0  0  0  0
    0.6300   -0.5561    0.0000 H   0  0  0  0  0  0  0  0  0  0  0  0
  1  2  1  0  0  0  0
  2  3  1  0  0  0  0
  3  4  4  0  0  0  0
  3 21  4  0  0  0  0
  4  5  4  0  0  0  0
  5  6  1  0  0  0  0
  5  7  4  0  0  0  0
  7  8  1  0  0  0  0
  7 20  4  0  0  0  0
  8  9  2  0  0  0  0
  8 10  1  0  0  0  0
 10 11  1  0  0  0  0
 10 18  2  0  0  0  0
 11 12  4  0  0  0  0
 11 17  4  0  0  0  0
 12 13  4  0  0  0  0
 13 14  4  0  0  0  0
 14 15  1  0  0  0  0
 14 16  4  0  0  0  0
 16 17  4  0  0  0  0
 18 19  1  0  0  0  0
 19 20  1  0  0  0  0
 20 21  4  0  0  0  0
 21 22  1  0  0  0  0
  1 23  1  0  0  0  0
  1 24  1  0  0  0  0
  1 25  1  0  0  0  0
 12 26  1  0  0  0  0
  6 27  1  0  0  0  0
 15 28  1  0  0  0  0
 16 29  1  0  0  0  0
 13 30  1  0  0  0  0
 18 31  1  0  0  0  0
  4 32  1  0  0  0  0
 17 33  1  0  0  0  0
M  END
> <Molecule ChEMBL ID>
CHEMBL491174

> <Class(50)>
0

> <Class(80)>
0

>  <salt>
false

>  <StandardizerResult>
Tautomerize (ID: Tautomerize)
Neutralize (ID: Neutralize)
Aromatize (ID: Aromatize)
Wedge Clean (ID: Wedge Clean)
Clean 2D (ID: Clean2D)

$$$$
CHEMBL1079227
  Mrv2010 08032110442D          

 22 22  0  0  0  0            999 V2000
   -0.4577    2.2311    0.0000 C   0  0  0  0  0  0  0  0  0  0  0  0
    0.2567    1.8186    0.0000 O   0  0  0  0  0  0  0  0  0  0  0  0
    0.2567    0.9936    0.0000 C   0  0  0  0  0  0  0  0  0  0  0  0
    0.9712    0.5811    0.0000 C   0  0  0  0  0  0  0  0  0  0  0  0
    0.9712   -0.2439    0.0000 C   0  0  0  0  0  0  0  0  0  0  0  0
    0.2567   -0.6564    0.0000 C   0  0  0  0  0  0  0  0  0  0  0  0
    0.2567   -1.4814    0.0000 C   0  0  0  0  0  0  0  0  0  0  0  0
    0.9712   -1.8939    0.0000 O   0  0  0  0  0  0  0  0  0  0  0  0
   -0.4577   -1.8939    0.0000 C   0  0  0  0  0  0  0  0  0  0  0  0
   -0.4577   -0.2439    0.0000 C   0  0  0  0  0  0  0  0  0  0  0  0
   -1.1722   -0.6564    0.0000 O   0  0  0  0  0  0  0  0  0  0  0  0
   -0.4577    0.5811    0.0000 C   0  0  0  0  0  0  0  0  0  0  0  0
   -1.9691   -0.4429    0.0000 H   0  0  0  0  0  0  0  0  0  0  0  0
   -0.8702   -1.1795    0.0000 H   0  0  0  0  0  0  0  0  0  0  0  0
   -1.1722   -2.3064    0.0000 H   0  0  0  0  0  0  0  0  0  0  0  0
   -0.0452   -2.6084    0.0000 H   0  0  0  0  0  0  0  0  0  0  0  0
    1.6857    0.9936    0.0000 H   0  0  0  0  0  0  0  0  0  0  0  0
    1.6857   -0.6564    0.0000 H   0  0  0  0  0  0  0  0  0  0  0  0
   -1.1722    0.9936    0.0000 H   0  0  0  0  0  0  0  0  0  0  0  0
   -0.0452    2.9455    0.0000 H   0  0  0  0  0  0  0  0  0  0  0  0
   -1.1722    2.6436    0.0000 H   0  0  0  0  0  0  0  0  0  0  0  0
   -0.8702    1.5166    0.0000 H   0  0  0  0  0  0  0  0  0  0  0  0
  1  2  1  0  0  0  0
  2  3  1  0  0  0  0
  3  4  4  0  0  0  0
  3 12  4  0  0  0  0
  4  5  4  0  0  0  0
  5  6  4  0  0  0  0
  6  7  1  0  0  0  0
  6 10  4  0  0  0  0
  7  8  2  0  0  0  0
  7  9  1  0  0  0  0
 10 11  1  0  0  0  0
 10 12  4  0  0  0  0
 11 13  1  0  0  0  0
  9 14  1  0  0  0  0
  9 15  1  0  0  0  0
  9 16  1  0  0  0  0
  4 17  1  0  0  0  0
  5 18  1  0  0  0  0
 12 19  1  0  0  0  0
  1 20  1  0  0  0  0
  1 21  1  0  0  0  0
  1 22  1  0  0  0  0
M  END
> <Molecule ChEMBL ID>
CHEMBL1079227

> <Class(50)>
0

> <Class(80)>
0

>  <salt>
false

>  <StandardizerResult>
Tautomerize (ID: Tautomerize)
Neutralize (ID: Neutralize)
Aromatize (ID: Aromatize)
Wedge Clean (ID: Wedge Clean)
Clean 2D (ID: Clean2D)

$$$$
CHEMBL346919
  Mrv2010 08032110442D          

 22 22  0  0  0  0            999 V2000
   -0.7162    1.5698    0.0000 C   0  0  0  0  0  0  0  0  0  0  0  0
   -0.0018    1.1573    0.0000 O   0  0  0  0  0  0  0  0  0  0  0  0
   -0.0018    0.3323    0.0000 C   0  0  0  0  0  0  0  0  0  0  0  0
    0.7127   -0.0802    0.0000 C   0  0  0  0  0  0  0  0  0  0  0  0
    0.7127   -0.9052    0.0000 C   0  0  0  0  0  0  0  0  0  0  0  0
    1.4272   -1.3177    0.0000 C   0  0  0  0  0  0  0  0  0  0  0  0
    2.1417   -0.9052    0.0000 O   0  0  0  0  0  0  0  0  0  0  0  0
    1.4272   -2.1427    0.0000 C   0  0  0  0  0  0  0  0  0  0  0  0
   -0.0018   -1.3177    0.0000 C   0  0  0  0  0  0  0  0  0  0  0  0
   -0.7162   -0.9052    0.0000 C   0  0  0  0  0  0  0  0  0  0  0  0
   -0.7162   -0.0802    0.0000 C   0  0  0  0  0  0  0  0  0  0  0  0
   -1.4307    0.3323    0.0000 O   0  0  0  0  0  0  0  0  0  0  0  0
    0.6022   -2.1427    0.0000 H   0  0  0  0  0  0  0  0  0  0  0  0
    1.4272   -2.9677    0.0000 H   0  0  0  0  0  0  0  0  0  0  0  0
    2.2522   -2.1427    0.0000 H   0  0  0  0  0  0  0  0  0  0  0  0
   -1.4307   -1.3177    0.0000 H   0  0  0  0  0  0  0  0  0  0  0  0
   -0.0018   -2.1427    0.0000 H   0  0  0  0  0  0  0  0  0  0  0  0
   -0.3037    2.2842    0.0000 H   0  0  0  0  0  0  0  0  0  0  0  0
   -1.4307    1.9823    0.0000 H   0  0  0  0  0  0  0  0  0  0  0  0
   -1.1287    0.8553    0.0000 H   0  0  0  0  0  0  0  0  0  0  0  0
    1.4272    0.3323    0.0000 H   0  0  0  0  0  0  0  0  0  0  0  0
   -2.2276    0.1187    0.0000 H   0  0  0  0  0  0  0  0  0  0  0  0
  1  2  1  0  0  0  0
  2  3  1  0  0  0  0
  3  4  4  0  0  0  0
  3 11  4  0  0  0  0
  4  5  4  0  0  0  0
  5  6  1  0  0  0  0
  5  9  4  0  0  0  0
  6  7  2  0  0  0  0
  6  8  1  0  0  0  0
  9 10  4  0  0  0  0
 10 11  4  0  0  0  0
 11 12  1  0  0  0  0
  8 13  1  0  0  0  0
  8 14  1  0  0  0  0
  8 15  1  0  0  0  0
 10 16  1  0  0  0  0
  9 17  1  0  0  0  0
  1 18  1  0  0  0  0
  1 19  1  0  0  0  0
  1 20  1  0  0  0  0
  4 21  1  0  0  0  0
 12 22  1  0  0  0  0
M  END
> <Molecule ChEMBL ID>
CHEMBL346919

> <Class(50)>
0

> <Class(80)>
0

>  <salt>
false

>  <StandardizerResult>
Tautomerize (ID: Tautomerize)
Neutralize (ID: Neutralize)
Aromatize (ID: Aromatize)
Wedge Clean (ID: Wedge Clean)
Clean 2D (ID: Clean2D)

$$$$
CHEMBL31
  Mrv2010 08032110442D          

 49 52  0  0  1  0            999 V2000
    0.5712   -1.3870    0.0000 C   0  0  0  0  0  0  0  0  0  0  0  0
    1.2857   -0.9745    0.0000 O   0  0  0  0  0  0  0  0  0  0  0  0
    1.2857   -0.1495    0.0000 C   0  0  0  0  0  0  0  0  0  0  0  0
    0.5712    0.2630    0.0000 C   0  0  0  0  0  0  0  0  0  0  0  0
   -0.1432   -0.1495    0.0000 N   0  0  0  0  0  0  0  0  0  0  0  0
   -0.1432   -0.9745    0.0000 C   0  0  0  0  0  0  0  0  0  0  0  0
   -0.8577   -1.3870    0.0000 C   0  0  0  0  0  0  0  0  0  0  0  0
   -1.5722   -0.9745    0.0000 N   0  0  0  0  0  0  0  0  0  0  0  0
   -1.5722   -0.1495    0.0000 C   0  0  1  0  0  0  0  0  0  0  0  0
   -2.2867    0.2630    0.0000 C   0  0  0  0  0  0  0  0  0  0  0  0
   -0.8577    0.2630    0.0000 C   0  0  0  0  0  0  0  0  0  0  0  0
    0.5712    1.0880    0.0000 C   0  0  0  0  0  0  0  0  0  0  0  0
   -0.1432    1.5005    0.0000 F   0  0  0  0  0  0  0  0  0  0  0  0
    1.2857    1.5005    0.0000 C   0  0  0  0  0  0  0  0  0  0  0  0
    2.0002    1.0880    0.0000 C   0  0  0  0  0  0  0  0  0  0  0  0
    2.7146    1.5005    0.0000 C   0  0  0  0  0  0  0  0  0  0  0  0
    2.7146    2.3255    0.0000 O   0  0  0  0  0  0  0  0  0  0  0  0
    3.4291    1.0880    0.0000 C   0  0  0  0  0  0  0  0  0  0  0  0
    4.1436    1.5005    0.0000 C   0  0  0  0  0  0  0  0  0  0  0  0
    4.1436    2.3255    0.0000 O   0  0  0  0  0  0  0  0  0  0  0  0
    4.8581    1.0880    0.0000 O   0  0  0  0  0  0  0  0  0  0  0  0
    3.4291    0.2630    0.0000 C   0  0  0  0  0  0  0  0  0  0  0  0
    2.7146   -0.1495    0.0000 N   0  0  0  0  0  0  0  0  0  0  0  0
    2.7146   -0.9745    0.0000 C   0  0  0  0  0  0  0  0  0  0  0  0
    3.1271   -1.6890    0.0000 C   0  0  0  0  0  0  0  0  0  0  0  0
    2.3021   -1.6890    0.0000 C   0  0  0  0  0  0  0  0  0  0  0  0
    2.0002    0.2630    0.0000 C   0  0  0  0  0  0  0  0  0  0  0  0
    4.8581    0.2630    0.0000 H   0  0  0  0  0  0  0  0  0  0  0  0
   -0.1432   -1.7995    0.0000 H   0  0  0  0  0  0  0  0  0  0  0  0
    0.5712   -2.2120    0.0000 H   0  0  0  0  0  0  0  0  0  0  0  0
    1.2857   -1.7995    0.0000 H   0  0  0  0  0  0  0  0  0  0  0  0
    0.5712   -0.5620    0.0000 H   0  0  0  0  0  0  0  0  0  0  0  0
   -0.8577   -0.5620    0.0000 H   0  0  0  0  0  0  0  0  0  0  0  0
   -2.5002    1.0599    0.0000 H   0  0  0  0  0  0  0  0  0  0  0  0
   -3.1117    0.2630    0.0000 H   0  0  0  0  0  0  0  0  0  0  0  0
   -2.5002   -0.5339    0.0000 H   0  0  0  0  0  0  0  0  0  0  0  0
   -0.2257    0.7933    0.0000 H   0  0  0  0  0  0  0  0  0  0  0  0
   -0.7145    1.0754    0.0000 H   0  0  0  0  0  0  0  0  0  0  0  0
    4.1436   -0.1495    0.0000 H   0  0  0  0  0  0  0  0  0  0  0  0
   -1.5722    0.6755    0.0000 H   0  0  0  0  0  0  0  0  0  0  0  0
   -1.4897   -1.9173    0.0000 H   0  0  0  0  0  0  0  0  0  0  0  0
   -1.0010   -2.1995    0.0000 H   0  0  0  0  0  0  0  0  0  0  0  0
    1.4785   -1.6410    0.0000 H   0  0  0  0  0  0  0  0  0  0  0  0
    1.9319   -2.4263    0.0000 H   0  0  0  0  0  0  0  0  0  0  0  0
    3.4974   -2.4263    0.0000 H   0  0  0  0  0  0  0  0  0  0  0  0
    3.9507   -1.6410    0.0000 H   0  0  0  0  0  0  0  0  0  0  0  0
    1.2857    2.3255    0.0000 H   0  0  0  0  0  0  0  0  0  0  0  0
   -2.3964   -1.0105    0.0000 H   0  0  0  0  0  0  0  0  0  0  0  0
    1.9178   -0.7610    0.0000 H   0  0  0  0  0  0  0  0  0  0  0  0
  1  2  1  0  0  0  0
  2  3  1  0  0  0  0
  3  4  4  0  0  0  0
  3 27  4  0  0  0  0
  4  5  1  0  0  0  0
  4 12  4  0  0  0  0
  5  6  1  0  0  0  0
  5 11  1  0  0  0  0
  6  7  1  0  0  0  0
  7  8  1  0  0  0  0
  9  8  1  0  0  0  0
  9 10  1  0  0  0  0
  9 11  1  0  0  0  0
 12 13  1  0  0  0  0
 12 14  4  0  0  0  0
 14 15  4  0  0  0  0
 15 16  1  0  0  0  0
 15 27  4  0  0  0  0
 16 17  2  0  0  0  0
 16 18  1  0  0  0  0
 18 19  1  0  0  0  0
 18 22  2  0  0  0  0
 19 20  2  0  0  0  0
 19 21  1  0  0  0  0
 22 23  1  0  0  0  0
 23 24  1  0  0  0  0
 23 27  1  0  0  0  0
 24 25  1  0  0  0  0
 24 26  1  0  0  0  0
 25 26  1  0  0  0  0
 21 28  1  0  0  0  0
  1 29  1  0  0  0  0
  1 30  1  0  0  0  0
  1 31  1  0  0  0  0
  6 32  1  0  0  0  0
  6 33  1  0  0  0  0
 10 34  1  0  0  0  0
 10 35  1  0  0  0  0
 10 36  1  0  0  0  0
 11 37  1  0  0  0  0
 11 38  1  0  0  0  0
 22 39  1  0  0  0  0
  9 40  1  6  0  0  0
  7 41  1  0  0  0  0
  7 42  1  0  0  0  0
 26 43  1  0  0  0  0
 26 44  1  0  0  0  0
 25 45  1  0  0  0  0
 25 46  1  0  0  0  0
 14 47  1  0  0  0  0
  8 48  1  0  0  0  0
 24 49  1  0  0  0  0
M  END
> <Molecule ChEMBL ID>
CHEMBL31

> <Class(50)>
0

> <Class(80)>
0

>  <salt>
false

>  <StandardizerResult>
Tautomerize (ID: Tautomerize)
Transform (ID: Transform NO2 (1))
Aromatize (ID: Aromatize)
Wedge Clean (ID: Wedge Clean)
Clean 2D (ID: Clean2D)

$$$$
CHEMBL582878
  Mrv2010 08032110442D          

 28 29  0  0  0  0            999 V2000
   -4.2833   -1.7783    0.0000 O   0  0  0  0  0  0  0  0  0  0  0  0
   -3.5689   -1.3658    0.0000 C   0  0  0  0  0  0  0  0  0  0  0  0
   -3.5689   -0.5408    0.0000 O   0  0  0  0  0  0  0  0  0  0  0  0
   -2.8544   -1.7783    0.0000 C   0  0  0  0  0  0  0  0  0  0  0  0
   -2.1399   -1.3658    0.0000 C   0  0  0  0  0  0  0  0  0  0  0  0
   -1.4254   -1.7783    0.0000 C   0  0  0  0  0  0  0  0  0  0  0  0
   -0.7110   -1.3658    0.0000 C   0  0  0  0  0  0  0  0  0  0  0  0
   -0.6247   -0.5453    0.0000 C   0  0  0  0  0  0  0  0  0  0  0  0
    0.1822   -0.3738    0.0000 N   0  0  0  0  0  0  0  0  0  0  0  0
    0.5947   -1.0882    0.0000 C   0  0  0  0  0  0  0  0  0  0  0  0
    1.4017   -1.2598    0.0000 C   0  0  0  0  0  0  0  0  0  0  0  0
    1.6567   -2.0444    0.0000 C   0  0  0  0  0  0  0  0  0  0  0  0
    1.1046   -2.6575    0.0000 C   0  0  0  0  0  0  0  0  0  0  0  0
    0.2976   -2.4860    0.0000 C   0  0  0  0  0  0  0  0  0  0  0  0
    0.0427   -1.7013    0.0000 C   0  0  0  0  0  0  0  0  0  0  0  0
    1.3596   -3.4421    0.0000 H   0  0  0  0  0  0  0  0  0  0  0  0
    2.4636   -2.2159    0.0000 H   0  0  0  0  0  0  0  0  0  0  0  0
   -0.2544   -3.0991    0.0000 H   0  0  0  0  0  0  0  0  0  0  0  0
   -2.8544   -0.1283    0.0000 H   0  0  0  0  0  0  0  0  0  0  0  0
   -1.7957   -2.5155    0.0000 H   0  0  0  0  0  0  0  0  0  0  0  0
   -1.0552   -2.5155    0.0000 H   0  0  0  0  0  0  0  0  0  0  0  0
   -3.2246   -2.5155    0.0000 H   0  0  0  0  0  0  0  0  0  0  0  0
   -2.4841   -2.5155    0.0000 H   0  0  0  0  0  0  0  0  0  0  0  0
    0.5178    0.3799    0.0000 H   0  0  0  0  0  0  0  0  0  0  0  0
   -1.7696   -0.6285    0.0000 H   0  0  0  0  0  0  0  0  0  0  0  0
   -2.5102   -0.6285    0.0000 H   0  0  0  0  0  0  0  0  0  0  0  0
   -1.2378    0.0067    0.0000 H   0  0  0  0  0  0  0  0  0  0  0  0
    1.9537   -0.6467    0.0000 H   0  0  0  0  0  0  0  0  0  0  0  0
  1  2  2  0  0  0  0
  2  3  1  0  0  0  0
  2  4  1  0  0  0  0
  4  5  1  0  0  0  0
  5  6  1  0  0  0  0
  6  7  1  0  0  0  0
  7  8  4  0  0  0  0
  7 15  4  0  0  0  0
  8  9  4  0  0  0  0
  9 10  4  0  0  0  0
 10 11  4  0  0  0  0
 10 15  4  0  0  0  0
 11 12  4  0  0  0  0
 12 13  4  0  0  0  0
 13 14  4  0  0  0  0
 14 15  4  0  0  0  0
 13 16  1  0  0  0  0
 12 17  1  0  0  0  0
 14 18  1  0  0  0  0
  3 19  1  0  0  0  0
  6 20  1  0  0  0  0
  6 21  1  0  0  0  0
  4 22  1  0  0  0  0
  4 23  1  0  0  0  0
  9 24  1  0  0  0  0
  5 25  1  0  0  0  0
  5 26  1  0  0  0  0
  8 27  1  0  0  0  0
 11 28  1  0  0  0  0
M  END
> <Molecule ChEMBL ID>
CHEMBL582878

> <Class(50)>
0

> <Class(80)>
0

>  <salt>
false

>  <StandardizerResult>
Tautomerize (ID: Tautomerize)
Neutralize (ID: Neutralize)
Aromatize (ID: Aromatize)
Wedge Clean (ID: Wedge Clean)
Clean 2D (ID: Clean2D)

$$$$
CHEMBL207225
  Mrv2010 08032110442D          

 25 26  0  0  0  0            999 V2000
   -3.1365   -2.9869    0.0000 O   0  0  0  0  0  0  0  0  0  0  0  0
   -2.3295   -2.8153    0.0000 C   0  0  0  0  0  0  0  0  0  0  0  0
   -1.7775   -3.4284    0.0000 O   0  0  0  0  0  0  0  0  0  0  0  0
   -2.0746   -2.0307    0.0000 C   0  0  0  0  0  0  0  0  0  0  0  0
   -1.2676   -1.8592    0.0000 C   0  0  0  0  0  0  0  0  0  0  0  0
   -1.0126   -1.0746    0.0000 C   0  0  0  0  0  0  0  0  0  0  0  0
   -1.4976   -0.4071    0.0000 C   0  0  0  0  0  0  0  0  0  0  0  0
   -1.0126    0.2603    0.0000 N   0  0  0  0  0  0  0  0  0  0  0  0
   -0.2280    0.0054    0.0000 C   0  0  0  0  0  0  0  0  0  0  0  0
    0.4864    0.4179    0.0000 C   0  0  0  0  0  0  0  0  0  0  0  0
    1.2009    0.0054    0.0000 C   0  0  0  0  0  0  0  0  0  0  0  0
    1.2009   -0.8196    0.0000 C   0  0  0  0  0  0  0  0  0  0  0  0
    0.4864   -1.2321    0.0000 C   0  0  0  0  0  0  0  0  0  0  0  0
   -0.2280   -0.8196    0.0000 C   0  0  0  0  0  0  0  0  0  0  0  0
   -1.0494   -2.6548    0.0000 H   0  0  0  0  0  0  0  0  0  0  0  0
   -0.4991   -2.1593    0.0000 H   0  0  0  0  0  0  0  0  0  0  0  0
    1.9154    0.4179    0.0000 H   0  0  0  0  0  0  0  0  0  0  0  0
   -2.0324   -4.2131    0.0000 H   0  0  0  0  0  0  0  0  0  0  0  0
   -2.3226   -0.4071    0.0000 H   0  0  0  0  0  0  0  0  0  0  0  0
   -1.2676    1.0449    0.0000 H   0  0  0  0  0  0  0  0  0  0  0  0
   -2.2927   -1.2351    0.0000 H   0  0  0  0  0  0  0  0  0  0  0  0
   -2.8430   -1.7306    0.0000 H   0  0  0  0  0  0  0  0  0  0  0  0
    1.9154   -1.2321    0.0000 H   0  0  0  0  0  0  0  0  0  0  0  0
    0.4864   -2.0571    0.0000 H   0  0  0  0  0  0  0  0  0  0  0  0
    0.4864    1.2429    0.0000 H   0  0  0  0  0  0  0  0  0  0  0  0
  1  2  2  0  0  0  0
  2  3  1  0  0  0  0
  2  4  1  0  0  0  0
  4  5  1  0  0  0  0
  5  6  1  0  0  0  0
  6  7  4  0  0  0  0
  6 14  4  0  0  0  0
  7  8  4  0  0  0  0
  8  9  4  0  0  0  0
  9 10  4  0  0  0  0
  9 14  4  0  0  0  0
 10 11  4  0  0  0  0
 11 12  4  0  0  0  0
 12 13  4  0  0  0  0
 13 14  4  0  0  0  0
  5 15  1  0  0  0  0
  5 16  1  0  0  0  0
 11 17  1  0  0  0  0
  3 18  1  0  0  0  0
  7 19  1  0  0  0  0
  8 20  1  0  0  0  0
  4 21  1  0  0  0  0
  4 22  1  0  0  0  0
 12 23  1  0  0  0  0
 13 24  1  0  0  0  0
 10 25  1  0  0  0  0
M  END
> <Molecule ChEMBL ID>
CHEMBL207225

> <Class(50)>
0

> <Class(80)>
0

>  <salt>
false

>  <StandardizerResult>
Tautomerize (ID: Tautomerize)
Neutralize (ID: Neutralize)
Aromatize (ID: Aromatize)
Wedge Clean (ID: Wedge Clean)
Clean 2D (ID: Clean2D)

$$$$
CHEMBL194014
  Mrv2010 08032110442D          

 25 25  0  0  0  0            999 V2000
   -1.2360    0.9847    0.0000 C   0  0  0  0  0  0  0  0  0  0  0  0
   -0.5215    0.5722    0.0000 C   0  0  0  0  0  0  0  0  0  0  0  0
    0.1930    0.9847    0.0000 C   0  0  0  0  0  0  0  0  0  0  0  0
    0.9074    0.5722    0.0000 O   0  0  0  0  0  0  0  0  0  0  0  0
    1.6219    0.9847    0.0000 C   0  0  0  0  0  0  0  0  0  0  0  0
    1.6219    1.8097    0.0000 O   0  0  0  0  0  0  0  0  0  0  0  0
    2.3364    0.5722    0.0000 C   0  0  0  0  0  0  0  0  0  0  0  0
    3.0508    0.9847    0.0000 C   0  0  0  0  0  0  0  0  0  0  0  0
    3.7653    0.5722    0.0000 C   0  0  0  0  0  0  0  0  0  0  0  0
    3.7653   -0.2528    0.0000 C   0  0  0  0  0  0  0  0  0  0  0  0
    4.4798   -0.6653    0.0000 O   0  0  0  0  0  0  0  0  0  0  0  0
    3.0508   -0.6653    0.0000 C   0  0  0  0  0  0  0  0  0  0  0  0
    2.3364   -0.2528    0.0000 C   0  0  0  0  0  0  0  0  0  0  0  0
   -0.8235    1.6992    0.0000 H   0  0  0  0  0  0  0  0  0  0  0  0
   -1.9505    1.3972    0.0000 H   0  0  0  0  0  0  0  0  0  0  0  0
   -1.6485    0.2702    0.0000 H   0  0  0  0  0  0  0  0  0  0  0  0
    3.0508    1.8097    0.0000 H   0  0  0  0  0  0  0  0  0  0  0  0
    4.4798   -1.4903    0.0000 H   0  0  0  0  0  0  0  0  0  0  0  0
    3.0508   -1.4903    0.0000 H   0  0  0  0  0  0  0  0  0  0  0  0
   -0.8918   -0.1650    0.0000 H   0  0  0  0  0  0  0  0  0  0  0  0
   -0.1513   -0.1650    0.0000 H   0  0  0  0  0  0  0  0  0  0  0  0
    0.5632    1.7220    0.0000 H   0  0  0  0  0  0  0  0  0  0  0  0
   -0.1773    1.7220    0.0000 H   0  0  0  0  0  0  0  0  0  0  0  0
    1.6219   -0.6653    0.0000 H   0  0  0  0  0  0  0  0  0  0  0  0
    4.4798    0.9847    0.0000 H   0  0  0  0  0  0  0  0  0  0  0  0
  1  2  1  0  0  0  0
  2  3  1  0  0  0  0
  3  4  1  0  0  0  0
  4  5  1  0  0  0  0
  5  6  2  0  0  0  0
  5  7  1  0  0  0  0
  7  8  4  0  0  0  0
  7 13  4  0  0  0  0
  8  9  4  0  0  0  0
  9 10  4  0  0  0  0
 10 11  1  0  0  0  0
 10 12  4  0  0  0  0
 12 13  4  0  0  0  0
  1 14  1  0  0  0  0
  1 15  1  0  0  0  0
  1 16  1  0  0  0  0
  8 17  1  0  0  0  0
 11 18  1  0  0  0  0
 12 19  1  0  0  0  0
  2 20  1  0  0  0  0
  2 21  1  0  0  0  0
  3 22  1  0  0  0  0
  3 23  1  0  0  0  0
 13 24  1  0  0  0  0
  9 25  1  0  0  0  0
M  END
> <Molecule ChEMBL ID>
CHEMBL194014

> <Class(50)>
0

> <Class(80)>
0

>  <salt>
false

>  <StandardizerResult>
Tautomerize (ID: Tautomerize)
Neutralize (ID: Neutralize)
Aromatize (ID: Aromatize)
Wedge Clean (ID: Wedge Clean)
Clean 2D (ID: Clean2D)

$$$$
CHEMBL459008
  Mrv2010 08032110442D          

 28 28  0  0  0  0            999 V2000
   -1.2281    0.7510    0.0000 C   0  0  0  0  0  0  0  0  0  0  0  0
   -0.5136    1.1635    0.0000 C   0  0  0  0  0  0  0  0  0  0  0  0
    0.2009    0.7510    0.0000 C   0  0  0  0  0  0  0  0  0  0  0  0
    0.9153    1.1635    0.0000 C   0  0  0  0  0  0  0  0  0  0  0  0
    1.6298    0.7510    0.0000 O   0  0  0  0  0  0  0  0  0  0  0  0
    2.3443    1.1635    0.0000 C   0  0  0  0  0  0  0  0  0  0  0  0
    2.3443    1.9885    0.0000 O   0  0  0  0  0  0  0  0  0  0  0  0
    3.0587    0.7510    0.0000 C   0  0  0  0  0  0  0  0  0  0  0  0
    3.7732    1.1635    0.0000 C   0  0  0  0  0  0  0  0  0  0  0  0
    4.4877    0.7510    0.0000 C   0  0  0  0  0  0  0  0  0  0  0  0
    4.4877   -0.0740    0.0000 C   0  0  0  0  0  0  0  0  0  0  0  0
    5.2022   -0.4865    0.0000 O   0  0  0  0  0  0  0  0  0  0  0  0
    3.7732   -0.4865    0.0000 C   0  0  0  0  0  0  0  0  0  0  0  0
    3.0587   -0.0740    0.0000 C   0  0  0  0  0  0  0  0  0  0  0  0
   -0.1434    1.9007    0.0000 H   0  0  0  0  0  0  0  0  0  0  0  0
   -0.8839    1.9007    0.0000 H   0  0  0  0  0  0  0  0  0  0  0  0
    5.2022   -1.3115    0.0000 H   0  0  0  0  0  0  0  0  0  0  0  0
    2.3443   -0.4865    0.0000 H   0  0  0  0  0  0  0  0  0  0  0  0
   -0.1694    0.0137    0.0000 H   0  0  0  0  0  0  0  0  0  0  0  0
    0.5711    0.0137    0.0000 H   0  0  0  0  0  0  0  0  0  0  0  0
   -1.6406    1.4654    0.0000 H   0  0  0  0  0  0  0  0  0  0  0  0
   -1.9426    0.3385    0.0000 H   0  0  0  0  0  0  0  0  0  0  0  0
   -0.8156    0.0365    0.0000 H   0  0  0  0  0  0  0  0  0  0  0  0
    3.7732    1.9885    0.0000 H   0  0  0  0  0  0  0  0  0  0  0  0
    5.2022    1.1635    0.0000 H   0  0  0  0  0  0  0  0  0  0  0  0
    1.2856    1.9007    0.0000 H   0  0  0  0  0  0  0  0  0  0  0  0
    0.5451    1.9007    0.0000 H   0  0  0  0  0  0  0  0  0  0  0  0
    3.7732   -1.3115    0.0000 H   0  0  0  0  0  0  0  0  0  0  0  0
  1  2  1  0  0  0  0
  2  3  1  0  0  0  0
  3  4  1  0  0  0  0
  4  5  1  0  0  0  0
  5  6  1  0  0  0  0
  6  7  2  0  0  0  0
  6  8  1  0  0  0  0
  8  9  4  0  0  0  0
  8 14  4  0  0  0  0
  9 10  4  0  0  0  0
 10 11  4  0  0  0  0
 11 12  1  0  0  0  0
 11 13  4  0  0  0  0
 13 14  4  0  0  0  0
  2 15  1  0  0  0  0
  2 16  1  0  0  0  0
 12 17  1  0  0  0  0
 14 18  1  0  0  0  0
  3 19  1  0  0  0  0
  3 20  1  0  0  0  0
  1 21  1  0  0  0  0
  1 22  1  0  0  0  0
  1 23  1  0  0  0  0
  9 24  1  0  0  0  0
 10 25  1  0  0  0  0
  4 26  1  0  0  0  0
  4 27  1  0  0  0  0
 13 28  1  0  0  0  0
M  END
> <Molecule ChEMBL ID>
CHEMBL459008

> <Class(50)>
0

> <Class(80)>
0

>  <salt>
false

>  <StandardizerResult>
Tautomerize (ID: Tautomerize)
Neutralize (ID: Neutralize)
Aromatize (ID: Aromatize)
Wedge Clean (ID: Wedge Clean)
Clean 2D (ID: Clean2D)

$$$$
CHEMBL15841
  Mrv2010 08032110442D          

 22 22  0  0  0  0            999 V2000
    0.0315    2.5082    0.0000 C   0  0  0  0  0  0  0  0  0  0  0  0
    0.7459    2.0957    0.0000 C   0  0  0  0  0  0  0  0  0  0  0  0
    0.7459    1.2707    0.0000 O   0  0  0  0  0  0  0  0  0  0  0  0
    1.4604    0.8582    0.0000 C   0  0  0  0  0  0  0  0  0  0  0  0
    2.1749    1.2707    0.0000 O   0  0  0  0  0  0  0  0  0  0  0  0
    1.4604    0.0332    0.0000 C   0  0  0  0  0  0  0  0  0  0  0  0
    2.1749   -0.3793    0.0000 C   0  0  0  0  0  0  0  0  0  0  0  0
    2.1749   -1.2043    0.0000 C   0  0  0  0  0  0  0  0  0  0  0  0
    1.4604   -1.6168    0.0000 C   0  0  0  0  0  0  0  0  0  0  0  0
    1.4604   -2.4418    0.0000 O   0  0  0  0  0  0  0  0  0  0  0  0
    0.7459   -1.2043    0.0000 C   0  0  0  0  0  0  0  0  0  0  0  0
    0.7459   -0.3793    0.0000 C   0  0  0  0  0  0  0  0  0  0  0  0
    0.0315    0.0332    0.0000 H   0  0  0  0  0  0  0  0  0  0  0  0
    2.8894   -1.6168    0.0000 H   0  0  0  0  0  0  0  0  0  0  0  0
    2.8894    0.0332    0.0000 H   0  0  0  0  0  0  0  0  0  0  0  0
    1.5695    2.1437    0.0000 H   0  0  0  0  0  0  0  0  0  0  0  0
    1.1993    2.7850    0.0000 H   0  0  0  0  0  0  0  0  0  0  0  0
    0.4440    3.2227    0.0000 H   0  0  0  0  0  0  0  0  0  0  0  0
   -0.6830    2.9207    0.0000 H   0  0  0  0  0  0  0  0  0  0  0  0
   -0.3810    1.7937    0.0000 H   0  0  0  0  0  0  0  0  0  0  0  0
    0.7459   -2.8543    0.0000 H   0  0  0  0  0  0  0  0  0  0  0  0
    0.0315   -1.6168    0.0000 H   0  0  0  0  0  0  0  0  0  0  0  0
  1  2  1  0  0  0  0
  2  3  1  0  0  0  0
  3  4  1  0  0  0  0
  4  5  2  0  0  0  0
  4  6  1  0  0  0  0
  6  7  4  0  0  0  0
  6 12  4  0  0  0  0
  7  8  4  0  0  0  0
  8  9  4  0  0  0  0
  9 10  1  0  0  0  0
  9 11  4  0  0  0  0
 11 12  4  0  0  0  0
 12 13  1  0  0  0  0
  8 14  1  0  0  0  0
  7 15  1  0  0  0  0
  2 16  1  0  0  0  0
  2 17  1  0  0  0  0
  1 18  1  0  0  0  0
  1 19  1  0  0  0  0
  1 20  1  0  0  0  0
 10 21  1  0  0  0  0
 11 22  1  0  0  0  0
M  END
> <Molecule ChEMBL ID>
CHEMBL15841

> <Class(50)>
0

> <Class(80)>
0

>  <salt>
false

>  <StandardizerResult>
Tautomerize (ID: Tautomerize)
Neutralize (ID: Neutralize)
Aromatize (ID: Aromatize)
Wedge Clean (ID: Wedge Clean)
Clean 2D (ID: Clean2D)

$$$$
CHEMBL39221
  Mrv2010 08032110442D          

 22 22  0  0  1  0            999 V2000
    1.5507    1.3080    0.0000 N   0  0  0  0  0  0  0  0  0  0  0  0
    0.8362    0.8955    0.0000 C   0  0  1  0  0  0  0  0  0  0  0  0
    0.1217    1.3080    0.0000 C   0  0  0  0  0  0  0  0  0  0  0  0
    0.1217    2.1330    0.0000 O   0  0  0  0  0  0  0  0  0  0  0  0
   -0.5927    0.8955    0.0000 O   0  0  0  0  0  0  0  0  0  0  0  0
    0.8362    0.0705    0.0000 C   0  0  0  0  0  0  0  0  0  0  0  0
    1.5507   -0.3420    0.0000 C   0  0  0  0  0  0  0  0  0  0  0  0
    1.5507   -1.1670    0.0000 C   0  0  0  0  0  0  0  0  0  0  0  0
    2.2651   -1.5795    0.0000 O   0  0  0  0  0  0  0  0  0  0  0  0
    0.8362   -1.5795    0.0000 C   0  0  0  0  0  0  0  0  0  0  0  0
    0.1217   -1.1670    0.0000 C   0  0  0  0  0  0  0  0  0  0  0  0
   -0.5927   -1.5795    0.0000 O   0  0  0  0  0  0  0  0  0  0  0  0
    0.1217   -0.3420    0.0000 C   0  0  0  0  0  0  0  0  0  0  0  0
   -1.3072   -1.1670    0.0000 H   0  0  0  0  0  0  0  0  0  0  0  0
    2.2651    0.0705    0.0000 H   0  0  0  0  0  0  0  0  0  0  0  0
    2.2651   -2.4045    0.0000 H   0  0  0  0  0  0  0  0  0  0  0  0
    0.8362    1.7205    0.0000 H   0  0  0  0  0  0  0  0  0  0  0  0
    0.8362   -2.4045    0.0000 H   0  0  0  0  0  0  0  0  0  0  0  0
    2.2651    0.8955    0.0000 H   0  0  0  0  0  0  0  0  0  0  0  0
    1.5507    2.1330    0.0000 H   0  0  0  0  0  0  0  0  0  0  0  0
   -0.5927    0.0705    0.0000 H   0  0  0  0  0  0  0  0  0  0  0  0
   -1.3072    1.3080    0.0000 H   0  0  0  0  0  0  0  0  0  0  0  0
  2  1  1  0  0  0  0
  2  3  1  0  0  0  0
  2  6  1  0  0  0  0
  3  4  2  0  0  0  0
  3  5  1  0  0  0  0
  6  7  4  0  0  0  0
  6 13  4  0  0  0  0
  7  8  4  0  0  0  0
  8  9  1  0  0  0  0
  8 10  4  0  0  0  0
 10 11  4  0  0  0  0
 11 12  1  0  0  0  0
 11 13  4  0  0  0  0
 12 14  1  0  0  0  0
  7 15  1  0  0  0  0
  9 16  1  0  0  0  0
  2 17  1  1  0  0  0
 10 18  1  0  0  0  0
  1 19  1  0  0  0  0
  1 20  1  0  0  0  0
 13 21  1  0  0  0  0
  5 22  1  0  0  0  0
M  END
> <Molecule ChEMBL ID>
CHEMBL39221

> <Class(50)>
0

> <Class(80)>
0

>  <salt>
false

>  <StandardizerResult>
Tautomerize (ID: Tautomerize)
Transform (ID: Transform NO2 (1))
Aromatize (ID: Aromatize)
Wedge Clean (ID: Wedge Clean)
Clean 2D (ID: Clean2D)

$$$$
CHEMBL1009
  Mrv2010 08032110442D          

 25 25  0  0  1  0            999 V2000
   -0.2350    0.5149    0.0000 N   0  0  0  0  0  0  0  0  0  0  0  0
    0.4795    0.9274    0.0000 C   0  0  1  0  0  0  0  0  0  0  0  0
    1.1940    0.5149    0.0000 C   0  0  0  0  0  0  0  0  0  0  0  0
    1.1940   -0.3101    0.0000 C   0  0  0  0  0  0  0  0  0  0  0  0
    1.9085   -0.7226    0.0000 C   0  0  0  0  0  0  0  0  0  0  0  0
    1.9085   -1.5476    0.0000 C   0  0  0  0  0  0  0  0  0  0  0  0
    1.1940   -1.9601    0.0000 C   0  0  0  0  0  0  0  0  0  0  0  0
    1.1940   -2.7851    0.0000 O   0  0  0  0  0  0  0  0  0  0  0  0
    0.4795   -1.5476    0.0000 C   0  0  0  0  0  0  0  0  0  0  0  0
   -0.2350   -1.9601    0.0000 O   0  0  0  0  0  0  0  0  0  0  0  0
    0.4795   -0.7226    0.0000 C   0  0  0  0  0  0  0  0  0  0  0  0
    0.4795    1.7524    0.0000 C   0  0  0  0  0  0  0  0  0  0  0  0
   -0.2350    2.1649    0.0000 O   0  0  0  0  0  0  0  0  0  0  0  0
    1.1940    2.1649    0.0000 O   0  0  0  0  0  0  0  0  0  0  0  0
    1.1940   -1.1351    0.0000 H   0  0  0  0  0  0  0  0  0  0  0  0
    0.4795   -3.1976    0.0000 H   0  0  0  0  0  0  0  0  0  0  0  0
   -0.9494   -1.5476    0.0000 H   0  0  0  0  0  0  0  0  0  0  0  0
    1.9085    1.7524    0.0000 H   0  0  0  0  0  0  0  0  0  0  0  0
    0.4795    0.1024    0.0000 H   0  0  0  0  0  0  0  0  0  0  0  0
    2.6229   -1.9601    0.0000 H   0  0  0  0  0  0  0  0  0  0  0  0
    2.0176    0.5629    0.0000 H   0  0  0  0  0  0  0  0  0  0  0  0
    1.6473    1.2042    0.0000 H   0  0  0  0  0  0  0  0  0  0  0  0
   -0.9494    0.9274    0.0000 H   0  0  0  0  0  0  0  0  0  0  0  0
   -0.2350   -0.3101    0.0000 H   0  0  0  0  0  0  0  0  0  0  0  0
    2.6229   -0.3101    0.0000 H   0  0  0  0  0  0  0  0  0  0  0  0
  2  1  1  0  0  0  0
  2  3  1  0  0  0  0
  2 12  1  0  0  0  0
  3  4  1  0  0  0  0
  4  5  4  0  0  0  0
  4 11  4  0  0  0  0
  5  6  4  0  0  0  0
  6  7  4  0  0  0  0
  7  8  1  0  0  0  0
  7  9  4  0  0  0  0
  9 10  1  0  0  0  0
  9 11  4  0  0  0  0
 12 13  2  0  0  0  0
 12 14  1  0  0  0  0
 11 15  1  0  0  0  0
  8 16  1  0  0  0  0
 10 17  1  0  0  0  0
 14 18  1  0  0  0  0
  2 19  1  1  0  0  0
  6 20  1  0  0  0  0
  3 21  1  0  0  0  0
  3 22  1  0  0  0  0
  1 23  1  0  0  0  0
  1 24  1  0  0  0  0
  5 25  1  0  0  0  0
M  END
> <Molecule ChEMBL ID>
CHEMBL1009

> <Class(50)>
0

> <Class(80)>
0

>  <salt>
false

>  <StandardizerResult>
Tautomerize (ID: Tautomerize)
Transform (ID: Transform NO2 (1))
Aromatize (ID: Aromatize)
Wedge Clean (ID: Wedge Clean)
Clean 2D (ID: Clean2D)

$$$$
CHEMBL325372
  Mrv2010 08032110442D          

 19 19  0  0  0  0            999 V2000
    0.2142    2.2741    0.0000 C   0  0  0  0  0  0  0  0  0  0  0  0
    0.2142    1.4491    0.0000 O   0  0  0  0  0  0  0  0  0  0  0  0
    0.9287    1.0366    0.0000 C   0  0  0  0  0  0  0  0  0  0  0  0
    1.6432    1.4491    0.0000 O   0  0  0  0  0  0  0  0  0  0  0  0
    0.9287    0.2116    0.0000 C   0  0  0  0  0  0  0  0  0  0  0  0
    1.6432   -0.2009    0.0000 C   0  0  0  0  0  0  0  0  0  0  0  0
    1.6432   -1.0259    0.0000 C   0  0  0  0  0  0  0  0  0  0  0  0
    0.9287   -1.4384    0.0000 C   0  0  0  0  0  0  0  0  0  0  0  0
    0.9287   -2.2634    0.0000 O   0  0  0  0  0  0  0  0  0  0  0  0
    0.2142   -1.0259    0.0000 C   0  0  0  0  0  0  0  0  0  0  0  0
    0.2142   -0.2009    0.0000 C   0  0  0  0  0  0  0  0  0  0  0  0
    0.2142   -2.6759    0.0000 H   0  0  0  0  0  0  0  0  0  0  0  0
   -0.5002   -1.4384    0.0000 H   0  0  0  0  0  0  0  0  0  0  0  0
    1.0392    2.2741    0.0000 H   0  0  0  0  0  0  0  0  0  0  0  0
    0.2142    3.0991    0.0000 H   0  0  0  0  0  0  0  0  0  0  0  0
   -0.6108    2.2741    0.0000 H   0  0  0  0  0  0  0  0  0  0  0  0
    2.3577    0.2116    0.0000 H   0  0  0  0  0  0  0  0  0  0  0  0
   -0.5002    0.2116    0.0000 H   0  0  0  0  0  0  0  0  0  0  0  0
    2.3577   -1.4384    0.0000 H   0  0  0  0  0  0  0  0  0  0  0  0
  1  2  1  0  0  0  0
  2  3  1  0  0  0  0
  3  4  2  0  0  0  0
  3  5  1  0  0  0  0
  5  6  4  0  0  0  0
  5 11  4  0  0  0  0
  6  7  4  0  0  0  0
  7  8  4  0  0  0  0
  8  9  1  0  0  0  0
  8 10  4  0  0  0  0
 10 11  4  0  0  0  0
  9 12  1  0  0  0  0
 10 13  1  0  0  0  0
  1 14  1  0  0  0  0
  1 15  1  0  0  0  0
  1 16  1  0  0  0  0
  6 17  1  0  0  0  0
 11 18  1  0  0  0  0
  7 19  1  0  0  0  0
M  END
> <Molecule ChEMBL ID>
CHEMBL325372

> <Class(50)>
0

> <Class(80)>
0

>  <salt>
false

>  <StandardizerResult>
Tautomerize (ID: Tautomerize)
Neutralize (ID: Neutralize)
Aromatize (ID: Aromatize)
Wedge Clean (ID: Wedge Clean)
Clean 2D (ID: Clean2D)

$$$$
CHEMBL1885632
  Mrv2010 08032110442D          

 25 25  0  0  0  0            999 V2000
   -0.1998    2.5515    0.0000 C   0  0  0  0  0  0  0  0  0  0  0  0
   -0.1998    1.7265    0.0000 C   0  0  0  0  0  0  0  0  0  0  0  0
   -0.9143    1.3140    0.0000 O   0  0  0  0  0  0  0  0  0  0  0  0
    0.5146    1.3140    0.0000 N   0  0  0  0  0  0  0  0  0  0  0  0
    0.5146    0.4890    0.0000 C   0  0  0  0  0  0  0  0  0  0  0  0
    1.2291    0.0765    0.0000 C   0  0  0  0  0  0  0  0  0  0  0  0
    1.2291   -0.7485    0.0000 C   0  0  0  0  0  0  0  0  0  0  0  0
    0.5146   -1.1610    0.0000 C   0  0  0  0  0  0  0  0  0  0  0  0
    0.5146   -1.9860    0.0000 C   0  0  0  0  0  0  0  0  0  0  0  0
   -0.1998   -2.3985    0.0000 C   0  0  0  0  0  0  0  0  0  0  0  0
   -0.1998   -3.2235    0.0000 O   0  0  0  0  0  0  0  0  0  0  0  0
   -0.9143   -1.9860    0.0000 O   0  0  0  0  0  0  0  0  0  0  0  0
   -0.1998   -0.7485    0.0000 C   0  0  0  0  0  0  0  0  0  0  0  0
   -0.1998    0.0765    0.0000 C   0  0  0  0  0  0  0  0  0  0  0  0
   -0.9143   -0.3360    0.0000 H   0  0  0  0  0  0  0  0  0  0  0  0
    1.9436   -1.1610    0.0000 H   0  0  0  0  0  0  0  0  0  0  0  0
    1.9436    0.4890    0.0000 H   0  0  0  0  0  0  0  0  0  0  0  0
    0.6252    2.5515    0.0000 H   0  0  0  0  0  0  0  0  0  0  0  0
   -0.1998    3.3765    0.0000 H   0  0  0  0  0  0  0  0  0  0  0  0
   -1.0248    2.5515    0.0000 H   0  0  0  0  0  0  0  0  0  0  0  0
   -0.9143   -1.1610    0.0000 H   0  0  0  0  0  0  0  0  0  0  0  0
   -0.6123    0.7910    0.0000 H   0  0  0  0  0  0  0  0  0  0  0  0
    1.2291    1.7265    0.0000 H   0  0  0  0  0  0  0  0  0  0  0  0
    0.9680   -2.6752    0.0000 H   0  0  0  0  0  0  0  0  0  0  0  0
    1.3383   -2.0339    0.0000 H   0  0  0  0  0  0  0  0  0  0  0  0
  1  2  1  0  0  0  0
  2  3  2  0  0  0  0
  2  4  1  0  0  0  0
  4  5  1  0  0  0  0
  5  6  4  0  0  0  0
  5 14  4  0  0  0  0
  6  7  4  0  0  0  0
  7  8  4  0  0  0  0
  8  9  1  0  0  0  0
  8 13  4  0  0  0  0
  9 10  1  0  0  0  0
 10 11  2  0  0  0  0
 10 12  1  0  0  0  0
 13 14  4  0  0  0  0
 13 15  1  0  0  0  0
  7 16  1  0  0  0  0
  6 17  1  0  0  0  0
  1 18  1  0  0  0  0
  1 19  1  0  0  0  0
  1 20  1  0  0  0  0
 12 21  1  0  0  0  0
 14 22  1  0  0  0  0
  4 23  1  0  0  0  0
  9 24  1  0  0  0  0
  9 25  1  0  0  0  0
M  END
> <Molecule ChEMBL ID>
CHEMBL1885632

> <Class(50)>
0

> <Class(80)>
0

>  <salt>
false

>  <StandardizerResult>
Tautomerize (ID: Tautomerize)
Neutralize (ID: Neutralize)
Aromatize (ID: Aromatize)
Wedge Clean (ID: Wedge Clean)
Clean 2D (ID: Clean2D)

$$$$
CHEMBL112687
  Mrv2010 08032110442D          

 22 22  0  0  0  0            999 V2000
    0.0551    2.0865    0.0000 C   0  0  0  0  0  0  0  0  0  0  0  0
    0.0551    1.2615    0.0000 C   0  0  0  0  0  0  0  0  0  0  0  0
   -0.6594    0.8490    0.0000 O   0  0  0  0  0  0  0  0  0  0  0  0
    0.7696    0.8490    0.0000 N   0  0  0  0  0  0  0  0  0  0  0  0
    0.7696    0.0240    0.0000 C   0  0  0  0  0  0  0  0  0  0  0  0
    1.4841   -0.3885    0.0000 C   0  0  0  0  0  0  0  0  0  0  0  0
    1.4841   -1.2135    0.0000 C   0  0  0  0  0  0  0  0  0  0  0  0
    0.7696   -1.6260    0.0000 C   0  0  0  0  0  0  0  0  0  0  0  0
    0.7696   -2.4510    0.0000 C   0  0  0  0  0  0  0  0  0  0  0  0
    1.4841   -2.8635    0.0000 O   0  0  0  0  0  0  0  0  0  0  0  0
    0.0551   -2.8635    0.0000 O   0  0  0  0  0  0  0  0  0  0  0  0
    0.0551   -1.2135    0.0000 C   0  0  0  0  0  0  0  0  0  0  0  0
    0.0551   -0.3885    0.0000 C   0  0  0  0  0  0  0  0  0  0  0  0
    2.1985    0.0240    0.0000 H   0  0  0  0  0  0  0  0  0  0  0  0
    1.4841    1.2615    0.0000 H   0  0  0  0  0  0  0  0  0  0  0  0
   -0.6594   -1.6260    0.0000 H   0  0  0  0  0  0  0  0  0  0  0  0
    0.8801    2.0865    0.0000 H   0  0  0  0  0  0  0  0  0  0  0  0
    0.0551    2.9115    0.0000 H   0  0  0  0  0  0  0  0  0  0  0  0
   -0.7699    2.0865    0.0000 H   0  0  0  0  0  0  0  0  0  0  0  0
   -0.6594    0.0240    0.0000 H   0  0  0  0  0  0  0  0  0  0  0  0
    2.1985   -1.6260    0.0000 H   0  0  0  0  0  0  0  0  0  0  0  0
   -0.6594   -2.4510    0.0000 H   0  0  0  0  0  0  0  0  0  0  0  0
  1  2  1  0  0  0  0
  2  3  2  0  0  0  0
  2  4  1  0  0  0  0
  4  5  1  0  0  0  0
  5  6  4  0  0  0  0
  5 13  4  0  0  0  0
  6  7  4  0  0  0  0
  7  8  4  0  0  0  0
  8  9  1  0  0  0  0
  8 12  4  0  0  0  0
  9 10  2  0  0  0  0
  9 11  1  0  0  0  0
 12 13  4  0  0  0  0
  6 14  1  0  0  0  0
  4 15  1  0  0  0  0
 12 16  1  0  0  0  0
  1 17  1  0  0  0  0
  1 18  1  0  0  0  0
  1 19  1  0  0  0  0
 13 20  1  0  0  0  0
  7 21  1  0  0  0  0
 11 22  1  0  0  0  0
M  END
> <Molecule ChEMBL ID>
CHEMBL112687

> <Class(50)>
0

> <Class(80)>
0

>  <salt>
false

>  <StandardizerResult>
Tautomerize (ID: Tautomerize)
Neutralize (ID: Neutralize)
Aromatize (ID: Aromatize)
Wedge Clean (ID: Wedge Clean)
Clean 2D (ID: Clean2D)

$$$$
CHEMBL701
  Mrv2010 08032110442D          

 26 26  0  0  1  0            999 V2000
    0.9285   -1.3770    0.0000 N   0  0  0  0  0  0  0  0  0  0  0  0
    1.6429   -0.9645    0.0000 C   0  0  0  0  0  0  0  0  0  0  0  0
    1.6429   -0.1395    0.0000 C   0  0  1  0  0  0  0  0  0  0  0  0
    2.3574    0.2730    0.0000 C   0  0  0  0  0  0  0  0  0  0  0  0
    3.0719   -0.1395    0.0000 C   0  0  0  0  0  0  0  0  0  0  0  0
    3.7863    0.2730    0.0000 O   0  0  0  0  0  0  0  0  0  0  0  0
    3.0719   -0.9645    0.0000 O   0  0  0  0  0  0  0  0  0  0  0  0
    0.9285    0.2730    0.0000 C   0  0  0  0  0  0  0  0  0  0  0  0
    0.2140   -0.1395    0.0000 C   0  0  0  0  0  0  0  0  0  0  0  0
   -0.5005    0.2730    0.0000 C   0  0  0  0  0  0  0  0  0  0  0  0
   -0.5005    1.0980    0.0000 C   0  0  0  0  0  0  0  0  0  0  0  0
   -1.2150    1.5105    0.0000 Cl  0  0  0  0  0  0  0  0  0  0  0  0
    0.2140    1.5105    0.0000 C   0  0  0  0  0  0  0  0  0  0  0  0
    0.9285    1.0980    0.0000 C   0  0  0  0  0  0  0  0  0  0  0  0
    1.6429    1.5105    0.0000 H   0  0  0  0  0  0  0  0  0  0  0  0
    0.2140   -0.9645    0.0000 H   0  0  0  0  0  0  0  0  0  0  0  0
    0.9285   -2.2020    0.0000 H   0  0  0  0  0  0  0  0  0  0  0  0
    2.7277    1.0103    0.0000 H   0  0  0  0  0  0  0  0  0  0  0  0
    1.9871    1.0103    0.0000 H   0  0  0  0  0  0  0  0  0  0  0  0
    3.6778   -1.5243    0.0000 H   0  0  0  0  0  0  0  0  0  0  0  0
    2.0963   -1.6537    0.0000 H   0  0  0  0  0  0  0  0  0  0  0  0
    2.4665   -1.0124    0.0000 H   0  0  0  0  0  0  0  0  0  0  0  0
    0.2140    2.3355    0.0000 H   0  0  0  0  0  0  0  0  0  0  0  0
    2.3574   -0.5520    0.0000 H   0  0  0  0  0  0  0  0  0  0  0  0
    0.9285   -0.5520    0.0000 H   0  0  0  0  0  0  0  0  0  0  0  0
   -1.2150   -0.1395    0.0000 H   0  0  0  0  0  0  0  0  0  0  0  0
  1  2  1  0  0  0  0
  3  2  1  0  0  0  0
  3  4  1  0  0  0  0
  3  8  1  0  0  0  0
  4  5  1  0  0  0  0
  5  6  2  0  0  0  0
  5  7  1  0  0  0  0
  8  9  4  0  0  0  0
  8 14  4  0  0  0  0
  9 10  4  0  0  0  0
 10 11  4  0  0  0  0
 11 12  1  0  0  0  0
 11 13  4  0  0  0  0
 13 14  4  0  0  0  0
 14 15  1  0  0  0  0
  1 16  1  0  0  0  0
  1 17  1  0  0  0  0
  4 18  1  0  0  0  0
  4 19  1  0  0  0  0
  7 20  1  0  0  0  0
  2 21  1  0  0  0  0
  2 22  1  0  0  0  0
 13 23  1  0  0  0  0
  3 24  1  1  0  0  0
  9 25  1  0  0  0  0
 10 26  1  0  0  0  0
M  END
> <Molecule ChEMBL ID>
CHEMBL701

> <Class(50)>
0

> <Class(80)>
0

>  <salt>
false

>  <StandardizerResult>
Tautomerize (ID: Tautomerize)
Transform (ID: Transform NO2 (1))
Aromatize (ID: Aromatize)
Wedge Clean (ID: Wedge Clean)
Clean 2D (ID: Clean2D)

$$$$
CHEMBL1256351
  Mrv2010 08032110442D          

 23 23  0  0  1  0            999 V2000
   -0.1346    0.3068    0.0000 N   0  0  0  0  0  0  0  0  0  0  0  0
    0.5798    0.7193    0.0000 C   0  0  1  0  0  0  0  0  0  0  0  0
    1.2943    0.3068    0.0000 C   0  0  0  0  0  0  0  0  0  0  0  0
    1.2943   -0.5182    0.0000 C   0  0  0  0  0  0  0  0  0  0  0  0
    2.0088   -0.9307    0.0000 C   0  0  0  0  0  0  0  0  0  0  0  0
    2.0088   -1.7557    0.0000 C   0  0  0  0  0  0  0  0  0  0  0  0
    1.2943   -2.1682    0.0000 C   0  0  0  0  0  0  0  0  0  0  0  0
    1.2943   -2.9932    0.0000 Cl  0  0  0  0  0  0  0  0  0  0  0  0
    0.5798   -1.7557    0.0000 C   0  0  0  0  0  0  0  0  0  0  0  0
    0.5798   -0.9307    0.0000 C   0  0  0  0  0  0  0  0  0  0  0  0
    0.5798    1.5443    0.0000 C   0  0  0  0  0  0  0  0  0  0  0  0
   -0.1346    1.9568    0.0000 O   0  0  0  0  0  0  0  0  0  0  0  0
    1.2943    1.9568    0.0000 O   0  0  0  0  0  0  0  0  0  0  0  0
    0.5798   -0.1057    0.0000 H   0  0  0  0  0  0  0  0  0  0  0  0
    2.1179    0.3548    0.0000 H   0  0  0  0  0  0  0  0  0  0  0  0
    1.7477    0.9961    0.0000 H   0  0  0  0  0  0  0  0  0  0  0  0
    1.2943   -1.3432    0.0000 H   0  0  0  0  0  0  0  0  0  0  0  0
    2.7233   -2.1682    0.0000 H   0  0  0  0  0  0  0  0  0  0  0  0
   -0.8491    0.7193    0.0000 H   0  0  0  0  0  0  0  0  0  0  0  0
   -0.1346   -0.5182    0.0000 H   0  0  0  0  0  0  0  0  0  0  0  0
    2.7233   -0.5182    0.0000 H   0  0  0  0  0  0  0  0  0  0  0  0
   -0.1346   -2.1682    0.0000 H   0  0  0  0  0  0  0  0  0  0  0  0
    2.0088    1.5443    0.0000 H   0  0  0  0  0  0  0  0  0  0  0  0
  2  1  1  0  0  0  0
  2  3  1  0  0  0  0
  2 11  1  0  0  0  0
  3  4  1  0  0  0  0
  4  5  4  0  0  0  0
  4 10  4  0  0  0  0
  5  6  4  0  0  0  0
  6  7  4  0  0  0  0
  7  8  1  0  0  0  0
  7  9  4  0  0  0  0
  9 10  4  0  0  0  0
 11 12  2  0  0  0  0
 11 13  1  0  0  0  0
  2 14  1  1  0  0  0
  3 15  1  0  0  0  0
  3 16  1  0  0  0  0
 10 17  1  0  0  0  0
  6 18  1  0  0  0  0
  1 19  1  0  0  0  0
  1 20  1  0  0  0  0
  5 21  1  0  0  0  0
  9 22  1  0  0  0  0
 13 23  1  0  0  0  0
M  END
> <Molecule ChEMBL ID>
CHEMBL1256351

> <Class(50)>
0

> <Class(80)>
0

>  <salt>
false

>  <StandardizerResult>
Tautomerize (ID: Tautomerize)
Transform (ID: Transform NO2 (1))
Aromatize (ID: Aromatize)
Wedge Clean (ID: Wedge Clean)
Clean 2D (ID: Clean2D)

$$$$
CHEMBL3187798
  Mrv2010 08032110442D          

 29 31  0  0  0  0            999 V2000
    1.2777    3.4618    0.0000 O   0  0  0  0  0  0  0  0  0  0  0  0
    1.2777    2.6368    0.0000 C   0  0  0  0  0  0  0  0  0  0  0  0
    0.5632    2.2243    0.0000 N   0  0  0  0  0  0  0  0  0  0  0  0
   -0.1512    2.6368    0.0000 C   0  0  0  0  0  0  0  0  0  0  0  0
   -0.8657    2.2243    0.0000 C   0  0  0  0  0  0  0  0  0  0  0  0
   -1.5802    2.6368    0.0000 C   0  0  0  0  0  0  0  0  0  0  0  0
   -2.3648    2.3819    0.0000 C   0  0  0  0  0  0  0  0  0  0  0  0
   -2.8497    3.0493    0.0000 C   0  0  0  0  0  0  0  0  0  0  0  0
   -2.3648    3.7168    0.0000 N   0  0  0  0  0  0  0  0  0  0  0  0
   -1.5802    3.4618    0.0000 C   0  0  0  0  0  0  0  0  0  0  0  0
   -0.8657    3.8743    0.0000 C   0  0  0  0  0  0  0  0  0  0  0  0
   -0.1512    3.4618    0.0000 N   0  0  0  0  0  0  0  0  0  0  0  0
    1.9922    2.2243    0.0000 C   0  0  0  0  0  0  0  0  0  0  0  0
    2.7066    2.6368    0.0000 C   0  0  0  0  0  0  0  0  0  0  0  0
    3.4211    2.2243    0.0000 C   0  0  0  0  0  0  0  0  0  0  0  0
    3.4211    1.3993    0.0000 C   0  0  0  0  0  0  0  0  0  0  0  0
    2.7066    0.9868    0.0000 C   0  0  0  0  0  0  0  0  0  0  0  0
    1.9922    1.3993    0.0000 C   0  0  0  0  0  0  0  0  0  0  0  0
    0.5632    1.3993    0.0000 H   0  0  0  0  0  0  0  0  0  0  0  0
   -2.6197    1.5973    0.0000 H   0  0  0  0  0  0  0  0  0  0  0  0
   -2.6197    4.5014    0.0000 H   0  0  0  0  0  0  0  0  0  0  0  0
   -0.8657    4.6993    0.0000 H   0  0  0  0  0  0  0  0  0  0  0  0
    2.7066    0.1618    0.0000 H   0  0  0  0  0  0  0  0  0  0  0  0
    1.2777    0.9868    0.0000 H   0  0  0  0  0  0  0  0  0  0  0  0
    4.1356    2.6368    0.0000 H   0  0  0  0  0  0  0  0  0  0  0  0
   -3.6747    3.0493    0.0000 H   0  0  0  0  0  0  0  0  0  0  0  0
    4.1356    0.9868    0.0000 H   0  0  0  0  0  0  0  0  0  0  0  0
    2.7066    3.4618    0.0000 H   0  0  0  0  0  0  0  0  0  0  0  0
   -0.8657    1.3993    0.0000 H   0  0  0  0  0  0  0  0  0  0  0  0
  1  2  2  0  0  0  0
  2  3  1  0  0  0  0
  2 13  1  0  0  0  0
  3  4  1  0  0  0  0
  4  5  4  0  0  0  0
  4 12  4  0  0  0  0
  5  6  4  0  0  0  0
  6  7  4  0  0  0  0
  6 10  4  0  0  0  0
  7  8  4  0  0  0  0
  8  9  4  0  0  0  0
  9 10  4  0  0  0  0
 10 11  4  0  0  0  0
 11 12  4  0  0  0  0
 13 14  4  0  0  0  0
 13 18  4  0  0  0  0
 14 15  4  0  0  0  0
 15 16  4  0  0  0  0
 16 17  4  0  0  0  0
 17 18  4  0  0  0  0
  3 19  1  0  0  0  0
  7 20  1  0  0  0  0
  9 21  1  0  0  0  0
 11 22  1  0  0  0  0
 17 23  1  0  0  0  0
 18 24  1  0  0  0  0
 15 25  1  0  0  0  0
  8 26  1  0  0  0  0
 16 27  1  0  0  0  0
 14 28  1  0  0  0  0
  5 29  1  0  0  0  0
M  END
> <Molecule ChEMBL ID>
CHEMBL3187798

> <Class(50)>
0

> <Class(80)>
0

>  <salt>
false

>  <StandardizerResult>
Tautomerize (ID: Tautomerize)
Neutralize (ID: Neutralize)
Aromatize (ID: Aromatize)
Wedge Clean (ID: Wedge Clean)
Clean 2D (ID: Clean2D)

$$$$
CHEMBL470266
  Mrv2010 08032110442D          

 35 37  0  0  1  0            999 V2000
   -2.7279   -3.0462    0.0000 C   0  0  0  0  0  0  0  0  0  0  0  0
   -2.7279   -2.2212    0.0000 O   0  0  0  0  0  0  0  0  0  0  0  0
   -2.0135   -1.8087    0.0000 C   0  0  0  0  0  0  0  0  0  0  0  0
   -2.0135   -0.9837    0.0000 C   0  0  0  0  0  0  0  0  0  0  0  0
   -1.2990   -0.5712    0.0000 C   0  0  0  0  0  0  0  0  0  0  0  0
   -0.5845   -0.9837    0.0000 C   0  0  0  0  0  0  0  0  0  0  0  0
    0.1300   -0.5712    0.0000 C   0  0  1  0  0  0  0  0  0  0  0  0
    0.1300    0.2538    0.0000 C   0  0  0  0  0  0  0  0  0  0  0  0
    0.8444    0.6663    0.0000 C   0  0  0  0  0  0  0  0  0  0  0  0
    0.8444    1.4913    0.0000 O   0  0  0  0  0  0  0  0  0  0  0  0
    1.5589    0.2538    0.0000 C   0  0  0  0  0  0  0  0  0  0  0  0
    2.2734    0.6663    0.0000 C   0  0  0  0  0  0  0  0  0  0  0  0
    2.2734    1.4913    0.0000 O   0  0  0  0  0  0  0  0  0  0  0  0
    2.9878    0.2538    0.0000 C   0  0  0  0  0  0  0  0  0  0  0  0
    2.9878   -0.5712    0.0000 C   0  0  0  0  0  0  0  0  0  0  0  0
    3.7023   -0.9837    0.0000 O   0  0  0  0  0  0  0  0  0  0  0  0
    2.2734   -0.9837    0.0000 C   0  0  0  0  0  0  0  0  0  0  0  0
    1.5589   -0.5712    0.0000 C   0  0  0  0  0  0  0  0  0  0  0  0
    0.8444   -0.9837    0.0000 O   0  0  0  0  0  0  0  0  0  0  0  0
   -0.5845   -1.8087    0.0000 C   0  0  0  0  0  0  0  0  0  0  0  0
   -1.2990   -2.2212    0.0000 C   0  0  0  0  0  0  0  0  0  0  0  0
   -2.7279   -0.5712    0.0000 H   0  0  0  0  0  0  0  0  0  0  0  0
   -1.2990    0.2538    0.0000 H   0  0  0  0  0  0  0  0  0  0  0  0
   -0.3234    0.9431    0.0000 H   0  0  0  0  0  0  0  0  0  0  0  0
   -0.6937    0.3018    0.0000 H   0  0  0  0  0  0  0  0  0  0  0  0
    3.7023   -1.8087    0.0000 H   0  0  0  0  0  0  0  0  0  0  0  0
   -1.2990   -3.0462    0.0000 H   0  0  0  0  0  0  0  0  0  0  0  0
    3.7023    0.6663    0.0000 H   0  0  0  0  0  0  0  0  0  0  0  0
    0.1300   -1.3962    0.0000 H   0  0  0  0  0  0  0  0  0  0  0  0
    2.9878    1.9038    0.0000 H   0  0  0  0  0  0  0  0  0  0  0  0
   -0.1720   -2.5231    0.0000 H   0  0  0  0  0  0  0  0  0  0  0  0
   -3.5529   -3.0462    0.0000 H   0  0  0  0  0  0  0  0  0  0  0  0
   -2.7279   -3.8712    0.0000 H   0  0  0  0  0  0  0  0  0  0  0  0
   -1.9029   -3.0462    0.0000 H   0  0  0  0  0  0  0  0  0  0  0  0
    2.2734   -1.8087    0.0000 H   0  0  0  0  0  0  0  0  0  0  0  0
  1  2  1  0  0  0  0
  2  3  1  0  0  0  0
  3  4  4  0  0  0  0
  3 21  4  0  0  0  0
  4  5  4  0  0  0  0
  5  6  4  0  0  0  0
  7  6  1  0  0  0  0
  6 20  4  0  0  0  0
  7  8  1  0  0  0  0
  7 19  1  0  0  0  0
  8  9  1  0  0  0  0
  9 10  2  0  0  0  0
  9 11  1  0  0  0  0
 11 12  4  0  0  0  0
 11 18  4  0  0  0  0
 12 13  1  0  0  0  0
 12 14  4  0  0  0  0
 14 15  4  0  0  0  0
 15 16  1  0  0  0  0
 15 17  4  0  0  0  0
 17 18  4  0  0  0  0
 18 19  1  0  0  0  0
 20 21  4  0  0  0  0
  4 22  1  0  0  0  0
  5 23  1  0  0  0  0
  8 24  1  0  0  0  0
  8 25  1  0  0  0  0
 16 26  1  0  0  0  0
 21 27  1  0  0  0  0
 14 28  1  0  0  0  0
  7 29  1  6  0  0  0
 13 30  1  0  0  0  0
 20 31  1  0  0  0  0
  1 32  1  0  0  0  0
  1 33  1  0  0  0  0
  1 34  1  0  0  0  0
 17 35  1  0  0  0  0
M  END
> <Molecule ChEMBL ID>
CHEMBL470266

> <Class(50)>
0

> <Class(80)>
0

>  <salt>
false

>  <StandardizerResult>
Tautomerize (ID: Tautomerize)
Transform (ID: Transform NO2 (1))
Aromatize (ID: Aromatize)
Wedge Clean (ID: Wedge Clean)
Clean 2D (ID: Clean2D)

$$$$
CHEMBL275628
  Mrv2010 08032110442D          

 24 25  0  0  0  0            999 V2000
   -2.2805   -2.8925    0.0000 N   0  0  0  0  0  0  0  0  0  0  0  0
   -2.0255   -2.1079    0.0000 C   0  0  0  0  0  0  0  0  0  0  0  0
   -1.2186   -1.9364    0.0000 C   0  0  0  0  0  0  0  0  0  0  0  0
   -0.9636   -1.1517    0.0000 C   0  0  0  0  0  0  0  0  0  0  0  0
   -1.4485   -0.4843    0.0000 C   0  0  0  0  0  0  0  0  0  0  0  0
   -0.9636    0.1831    0.0000 N   0  0  0  0  0  0  0  0  0  0  0  0
   -0.1790   -0.0718    0.0000 C   0  0  0  0  0  0  0  0  0  0  0  0
    0.5355    0.3407    0.0000 C   0  0  0  0  0  0  0  0  0  0  0  0
    1.2499   -0.0718    0.0000 C   0  0  0  0  0  0  0  0  0  0  0  0
    1.2499   -0.8968    0.0000 C   0  0  0  0  0  0  0  0  0  0  0  0
    1.9644   -1.3093    0.0000 F   0  0  0  0  0  0  0  0  0  0  0  0
    0.5355   -1.3093    0.0000 C   0  0  0  0  0  0  0  0  0  0  0  0
   -0.1790   -0.8968    0.0000 C   0  0  0  0  0  0  0  0  0  0  0  0
   -3.0874   -3.0640    0.0000 H   0  0  0  0  0  0  0  0  0  0  0  0
   -1.7284   -3.5056    0.0000 H   0  0  0  0  0  0  0  0  0  0  0  0
    0.5355   -2.1343    0.0000 H   0  0  0  0  0  0  0  0  0  0  0  0
   -2.2735   -0.4843    0.0000 H   0  0  0  0  0  0  0  0  0  0  0  0
    0.5355    1.1657    0.0000 H   0  0  0  0  0  0  0  0  0  0  0  0
   -1.0004   -2.7320    0.0000 H   0  0  0  0  0  0  0  0  0  0  0  0
   -0.4501   -2.2365    0.0000 H   0  0  0  0  0  0  0  0  0  0  0  0
   -1.2186    0.9678    0.0000 H   0  0  0  0  0  0  0  0  0  0  0  0
    1.9644    0.3407    0.0000 H   0  0  0  0  0  0  0  0  0  0  0  0
   -2.2437   -1.3122    0.0000 H   0  0  0  0  0  0  0  0  0  0  0  0
   -2.7940   -1.8078    0.0000 H   0  0  0  0  0  0  0  0  0  0  0  0
  1  2  1  0  0  0  0
  2  3  1  0  0  0  0
  3  4  1  0  0  0  0
  4  5  4  0  0  0  0
  4 13  4  0  0  0  0
  5  6  4  0  0  0  0
  6  7  4  0  0  0  0
  7  8  4  0  0  0  0
  7 13  4  0  0  0  0
  8  9  4  0  0  0  0
  9 10  4  0  0  0  0
 10 11  1  0  0  0  0
 10 12  4  0  0  0  0
 12 13  4  0  0  0  0
  1 14  1  0  0  0  0
  1 15  1  0  0  0  0
 12 16  1  0  0  0  0
  5 17  1  0  0  0  0
  8 18  1  0  0  0  0
  3 19  1  0  0  0  0
  3 20  1  0  0  0  0
  6 21  1  0  0  0  0
  9 22  1  0  0  0  0
  2 23  1  0  0  0  0
  2 24  1  0  0  0  0
M  END
> <Molecule ChEMBL ID>
CHEMBL275628

> <Class(50)>
0

> <Class(80)>
0

>  <salt>
false

>  <StandardizerResult>
Tautomerize (ID: Tautomerize)
Neutralize (ID: Neutralize)
Aromatize (ID: Aromatize)
Wedge Clean (ID: Wedge Clean)
Clean 2D (ID: Clean2D)

$$$$
CHEMBL8165
  Mrv2010 08032110442D          

 28 29  0  0  0  0            999 V2000
    2.2393    0.5682    0.0000 C   0  0  0  0  0  0  0  0  0  0  0  0
    1.5248    0.9807    0.0000 O   0  0  0  0  0  0  0  0  0  0  0  0
    0.8103    0.5682    0.0000 C   0  0  0  0  0  0  0  0  0  0  0  0
    0.8103   -0.2568    0.0000 C   0  0  0  0  0  0  0  0  0  0  0  0
    0.0958   -0.6693    0.0000 C   0  0  0  0  0  0  0  0  0  0  0  0
   -0.6186   -0.2568    0.0000 C   0  0  0  0  0  0  0  0  0  0  0  0
   -1.4032   -0.5118    0.0000 N   0  0  0  0  0  0  0  0  0  0  0  0
   -1.8882    0.1557    0.0000 C   0  0  0  0  0  0  0  0  0  0  0  0
   -1.4032    0.8231    0.0000 C   0  0  0  0  0  0  0  0  0  0  0  0
   -1.6582    1.6077    0.0000 C   0  0  0  0  0  0  0  0  0  0  0  0
   -1.1062    2.2208    0.0000 C   0  0  0  0  0  0  0  0  0  0  0  0
   -1.3611    3.0054    0.0000 N   0  0  0  0  0  0  0  0  0  0  0  0
   -0.6186    0.5682    0.0000 C   0  0  0  0  0  0  0  0  0  0  0  0
    0.0958    0.9807    0.0000 C   0  0  0  0  0  0  0  0  0  0  0  0
    0.6393    1.6014    0.0000 H   0  0  0  0  0  0  0  0  0  0  0  0
    1.5248   -0.6693    0.0000 H   0  0  0  0  0  0  0  0  0  0  0  0
   -2.3023    2.1232    0.0000 H   0  0  0  0  0  0  0  0  0  0  0  0
   -2.4563    1.3988    0.0000 H   0  0  0  0  0  0  0  0  0  0  0  0
    1.8268   -0.1463    0.0000 H   0  0  0  0  0  0  0  0  0  0  0  0
    2.9537    0.1557    0.0000 H   0  0  0  0  0  0  0  0  0  0  0  0
    2.6518    1.2826    0.0000 H   0  0  0  0  0  0  0  0  0  0  0  0
   -0.4620    1.7054    0.0000 H   0  0  0  0  0  0  0  0  0  0  0  0
   -0.3080    2.4297    0.0000 H   0  0  0  0  0  0  0  0  0  0  0  0
    0.0958   -1.4943    0.0000 H   0  0  0  0  0  0  0  0  0  0  0  0
   -1.6582   -1.2964    0.0000 H   0  0  0  0  0  0  0  0  0  0  0  0
   -2.7132    0.1557    0.0000 H   0  0  0  0  0  0  0  0  0  0  0  0
   -0.8091    3.6185    0.0000 H   0  0  0  0  0  0  0  0  0  0  0  0
   -2.1681    3.1770    0.0000 H   0  0  0  0  0  0  0  0  0  0  0  0
  1  2  1  0  0  0  0
  2  3  1  0  0  0  0
  3  4  4  0  0  0  0
  3 14  4  0  0  0  0
  4  5  4  0  0  0  0
  5  6  4  0  0  0  0
  6  7  4  0  0  0  0
  6 13  4  0  0  0  0
  7  8  4  0  0  0  0
  8  9  4  0  0  0  0
  9 10  1  0  0  0  0
  9 13  4  0  0  0  0
 10 11  1  0  0  0  0
 11 12  1  0  0  0  0
 13 14  4  0  0  0  0
 14 15  1  0  0  0  0
  4 16  1  0  0  0  0
 10 17  1  0  0  0  0
 10 18  1  0  0  0  0
  1 19  1  0  0  0  0
  1 20  1  0  0  0  0
  1 21  1  0  0  0  0
 11 22  1  0  0  0  0
 11 23  1  0  0  0  0
  5 24  1  0  0  0  0
  7 25  1  0  0  0  0
  8 26  1  0  0  0  0
 12 27  1  0  0  0  0
 12 28  1  0  0  0  0
M  END
> <Molecule ChEMBL ID>
CHEMBL8165

> <Class(50)>
0

> <Class(80)>
0

>  <salt>
false

>  <StandardizerResult>
Tautomerize (ID: Tautomerize)
Neutralize (ID: Neutralize)
Aromatize (ID: Aromatize)
Wedge Clean (ID: Wedge Clean)
Clean 2D (ID: Clean2D)

$$$$
CHEMBL23507
  Mrv2010 08032110442D          

 19 20  0  0  0  0            999 V2000
   -2.2151   -1.7644    0.0000 O   0  0  0  0  0  0  0  0  0  0  0  0
   -1.8026   -1.0499    0.0000 C   0  0  0  0  0  0  0  0  0  0  0  0
   -2.2151   -0.3354    0.0000 O   0  0  0  0  0  0  0  0  0  0  0  0
   -0.9776   -1.0499    0.0000 C   0  0  0  0  0  0  0  0  0  0  0  0
   -0.4927   -0.3825    0.0000 C   0  0  0  0  0  0  0  0  0  0  0  0
    0.2920   -0.6374    0.0000 C   0  0  0  0  0  0  0  0  0  0  0  0
    1.0064   -0.2249    0.0000 C   0  0  0  0  0  0  0  0  0  0  0  0
    1.7209   -0.6374    0.0000 C   0  0  0  0  0  0  0  0  0  0  0  0
    2.4354   -0.2249    0.0000 F   0  0  0  0  0  0  0  0  0  0  0  0
    1.7209   -1.4624    0.0000 C   0  0  0  0  0  0  0  0  0  0  0  0
    1.0064   -1.8749    0.0000 C   0  0  0  0  0  0  0  0  0  0  0  0
    0.2920   -1.4624    0.0000 C   0  0  0  0  0  0  0  0  0  0  0  0
   -0.4927   -1.7173    0.0000 N   0  0  0  0  0  0  0  0  0  0  0  0
   -1.8026    0.3790    0.0000 H   0  0  0  0  0  0  0  0  0  0  0  0
    1.0064    0.6001    0.0000 H   0  0  0  0  0  0  0  0  0  0  0  0
    2.4354   -1.8749    0.0000 H   0  0  0  0  0  0  0  0  0  0  0  0
   -0.7476   -2.5020    0.0000 H   0  0  0  0  0  0  0  0  0  0  0  0
    1.0064   -2.6999    0.0000 H   0  0  0  0  0  0  0  0  0  0  0  0
   -0.7476    0.4022    0.0000 H   0  0  0  0  0  0  0  0  0  0  0  0
  1  2  2  0  0  0  0
  2  3  1  0  0  0  0
  2  4  1  0  0  0  0
  4  5  4  0  0  0  0
  4 13  4  0  0  0  0
  5  6  4  0  0  0  0
  6  7  4  0  0  0  0
  6 12  4  0  0  0  0
  7  8  4  0  0  0  0
  8  9  1  0  0  0  0
  8 10  4  0  0  0  0
 10 11  4  0  0  0  0
 11 12  4  0  0  0  0
 12 13  4  0  0  0  0
  3 14  1  0  0  0  0
  7 15  1  0  0  0  0
 10 16  1  0  0  0  0
 13 17  1  0  0  0  0
 11 18  1  0  0  0  0
  5 19  1  0  0  0  0
M  END
> <Molecule ChEMBL ID>
CHEMBL23507

> <Class(50)>
0

> <Class(80)>
0

>  <salt>
false

>  <StandardizerResult>
Tautomerize (ID: Tautomerize)
Neutralize (ID: Neutralize)
Aromatize (ID: Aromatize)
Wedge Clean (ID: Wedge Clean)
Clean 2D (ID: Clean2D)

$$$$
CHEMBL507614
  Mrv2010 08032110442D          

 16 17  0  0  0  0            999 V2000
   -2.5179    0.3050    0.0000 O   0  0  0  0  0  0  0  0  0  0  0  0
   -2.1054    1.0195    0.0000 C   0  0  0  0  0  0  0  0  0  0  0  0
   -2.5179    1.7340    0.0000 O   0  0  0  0  0  0  0  0  0  0  0  0
   -1.2804    1.0195    0.0000 C   0  0  0  0  0  0  0  0  0  0  0  0
   -0.7955    1.6869    0.0000 C   0  0  0  0  0  0  0  0  0  0  0  0
   -0.0109    1.4320    0.0000 C   0  0  0  0  0  0  0  0  0  0  0  0
    0.7738    1.6869    0.0000 S   0  0  0  0  0  0  0  0  0  0  0  0
    1.2587    1.0195    0.0000 C   0  0  0  0  0  0  0  0  0  0  0  0
    0.7738    0.3520    0.0000 C   0  0  0  0  0  0  0  0  0  0  0  0
   -0.0109    0.6070    0.0000 C   0  0  0  0  0  0  0  0  0  0  0  0
   -0.7955    0.3520    0.0000 N   0  0  0  0  0  0  0  0  0  0  0  0
    1.0287   -0.4326    0.0000 H   0  0  0  0  0  0  0  0  0  0  0  0
   -1.0504    2.4715    0.0000 H   0  0  0  0  0  0  0  0  0  0  0  0
   -2.1054    2.4484    0.0000 H   0  0  0  0  0  0  0  0  0  0  0  0
    2.0837    1.0195    0.0000 H   0  0  0  0  0  0  0  0  0  0  0  0
   -1.0504   -0.4326    0.0000 H   0  0  0  0  0  0  0  0  0  0  0  0
  1  2  2  0  0  0  0
  2  3  1  0  0  0  0
  2  4  1  0  0  0  0
  4  5  4  0  0  0  0
  4 11  4  0  0  0  0
  5  6  4  0  0  0  0
  6  7  4  0  0  0  0
  6 10  4  0  0  0  0
  7  8  4  0  0  0  0
  8  9  4  0  0  0  0
  9 10  4  0  0  0  0
 10 11  4  0  0  0  0
  9 12  1  0  0  0  0
  5 13  1  0  0  0  0
  3 14  1  0  0  0  0
  8 15  1  0  0  0  0
 11 16  1  0  0  0  0
M  END
> <Molecule ChEMBL ID>
CHEMBL507614

> <Class(50)>
0

> <Class(80)>
0

>  <salt>
false

>  <StandardizerResult>
Tautomerize (ID: Tautomerize)
Neutralize (ID: Neutralize)
Aromatize (ID: Aromatize)
Wedge Clean (ID: Wedge Clean)
Clean 2D (ID: Clean2D)

$$$$
CHEMBL492591
  Mrv2010 08032110442D          

 16 17  0  0  0  0            999 V2000
   -2.5179    0.3050    0.0000 O   0  0  0  0  0  0  0  0  0  0  0  0
   -2.1054    1.0195    0.0000 C   0  0  0  0  0  0  0  0  0  0  0  0
   -2.5179    1.7340    0.0000 O   0  0  0  0  0  0  0  0  0  0  0  0
   -1.2804    1.0195    0.0000 C   0  0  0  0  0  0  0  0  0  0  0  0
   -0.7955    1.6869    0.0000 C   0  0  0  0  0  0  0  0  0  0  0  0
   -0.0109    1.4320    0.0000 C   0  0  0  0  0  0  0  0  0  0  0  0
    0.7738    1.6869    0.0000 O   0  0  0  0  0  0  0  0  0  0  0  0
    1.2587    1.0195    0.0000 C   0  0  0  0  0  0  0  0  0  0  0  0
    0.7738    0.3520    0.0000 C   0  0  0  0  0  0  0  0  0  0  0  0
   -0.0109    0.6070    0.0000 C   0  0  0  0  0  0  0  0  0  0  0  0
   -0.7955    0.3520    0.0000 N   0  0  0  0  0  0  0  0  0  0  0  0
   -2.1054    2.4484    0.0000 H   0  0  0  0  0  0  0  0  0  0  0  0
    2.0837    1.0195    0.0000 H   0  0  0  0  0  0  0  0  0  0  0  0
   -1.0504   -0.4326    0.0000 H   0  0  0  0  0  0  0  0  0  0  0  0
    1.0287   -0.4326    0.0000 H   0  0  0  0  0  0  0  0  0  0  0  0
   -1.0504    2.4715    0.0000 H   0  0  0  0  0  0  0  0  0  0  0  0
  1  2  2  0  0  0  0
  2  3  1  0  0  0  0
  2  4  1  0  0  0  0
  4  5  4  0  0  0  0
  4 11  4  0  0  0  0
  5  6  4  0  0  0  0
  6  7  4  0  0  0  0
  6 10  4  0  0  0  0
  7  8  4  0  0  0  0
  8  9  4  0  0  0  0
  9 10  4  0  0  0  0
 10 11  4  0  0  0  0
  3 12  1  0  0  0  0
  8 13  1  0  0  0  0
 11 14  1  0  0  0  0
  9 15  1  0  0  0  0
  5 16  1  0  0  0  0
M  END
> <Molecule ChEMBL ID>
CHEMBL492591

> <Class(50)>
0

> <Class(80)>
0

>  <salt>
false

>  <StandardizerResult>
Tautomerize (ID: Tautomerize)
Neutralize (ID: Neutralize)
Aromatize (ID: Aromatize)
Wedge Clean (ID: Wedge Clean)
Clean 2D (ID: Clean2D)

$$$$
CHEMBL125582
  Mrv2010 08032110442D          

 27 27  0  0  1  0            999 V2000
   -0.6039    0.7641    0.0000 N   0  0  0  0  0  0  0  0  0  0  0  0
    0.1106    1.1766    0.0000 C   0  0  1  0  0  0  0  0  0  0  0  0
    0.8251    0.7641    0.0000 C   0  0  0  0  0  0  0  0  0  0  0  0
    0.8251   -0.0609    0.0000 C   0  0  0  0  0  0  0  0  0  0  0  0
    1.5395   -0.4734    0.0000 C   0  0  0  0  0  0  0  0  0  0  0  0
    1.5395   -1.2984    0.0000 C   0  0  0  0  0  0  0  0  0  0  0  0
    0.8251   -1.7109    0.0000 C   0  0  0  0  0  0  0  0  0  0  0  0
    0.8251   -2.5359    0.0000 B   0  0  0  0  0  0  0  0  0  0  0  0
    0.1106   -2.9484    0.0000 O   0  0  0  0  0  0  0  0  0  0  0  0
    1.5395   -2.9484    0.0000 O   0  0  0  0  0  0  0  0  0  0  0  0
    0.1106   -1.2984    0.0000 C   0  0  0  0  0  0  0  0  0  0  0  0
    0.1106   -0.4734    0.0000 C   0  0  0  0  0  0  0  0  0  0  0  0
    0.1106    2.0016    0.0000 C   0  0  0  0  0  0  0  0  0  0  0  0
   -0.6039    2.4141    0.0000 O   0  0  0  0  0  0  0  0  0  0  0  0
    0.8251    2.4141    0.0000 O   0  0  0  0  0  0  0  0  0  0  0  0
    0.8251   -0.8859    0.0000 H   0  0  0  0  0  0  0  0  0  0  0  0
   -1.3184    1.1766    0.0000 H   0  0  0  0  0  0  0  0  0  0  0  0
   -0.6039   -0.0609    0.0000 H   0  0  0  0  0  0  0  0  0  0  0  0
    1.6487    0.8120    0.0000 H   0  0  0  0  0  0  0  0  0  0  0  0
    1.2784    1.4533    0.0000 H   0  0  0  0  0  0  0  0  0  0  0  0
    1.5395   -3.7734    0.0000 H   0  0  0  0  0  0  0  0  0  0  0  0
    2.2540   -1.7109    0.0000 H   0  0  0  0  0  0  0  0  0  0  0  0
    1.5395    2.0016    0.0000 H   0  0  0  0  0  0  0  0  0  0  0  0
   -0.6039   -2.5359    0.0000 H   0  0  0  0  0  0  0  0  0  0  0  0
    0.1106    0.3516    0.0000 H   0  0  0  0  0  0  0  0  0  0  0  0
    2.2540   -0.0609    0.0000 H   0  0  0  0  0  0  0  0  0  0  0  0
   -0.6039   -1.7109    0.0000 H   0  0  0  0  0  0  0  0  0  0  0  0
  2  1  1  0  0  0  0
  2  3  1  0  0  0  0
  2 13  1  0  0  0  0
  3  4  1  0  0  0  0
  4  5  4  0  0  0  0
  4 12  4  0  0  0  0
  5  6  4  0  0  0  0
  6  7  4  0  0  0  0
  7  8  1  0  0  0  0
  7 11  4  0  0  0  0
  8  9  1  0  0  0  0
  8 10  1  0  0  0  0
 11 12  4  0  0  0  0
 13 14  2  0  0  0  0
 13 15  1  0  0  0  0
 12 16  1  0  0  0  0
  1 17  1  0  0  0  0
  1 18  1  0  0  0  0
  3 19  1  0  0  0  0
  3 20  1  0  0  0  0
 10 21  1  0  0  0  0
  6 22  1  0  0  0  0
 15 23  1  0  0  0  0
  9 24  1  0  0  0  0
  2 25  1  1  0  0  0
  5 26  1  0  0  0  0
 11 27  1  0  0  0  0
M  END
> <Molecule ChEMBL ID>
CHEMBL125582

> <Class(50)>
0

> <Class(80)>
0

>  <salt>
false

>  <StandardizerResult>
Tautomerize (ID: Tautomerize)
Transform (ID: Transform NO2 (1))
Aromatize (ID: Aromatize)
Wedge Clean (ID: Wedge Clean)
Clean 2D (ID: Clean2D)

$$$$
CHEMBL39
  Mrv2010 08032110442D          

 25 26  0  0  0  0            999 V2000
   -2.3946   -2.7455    0.0000 N   0  0  0  0  0  0  0  0  0  0  0  0
   -2.1397   -1.9609    0.0000 C   0  0  0  0  0  0  0  0  0  0  0  0
   -1.3327   -1.7894    0.0000 C   0  0  0  0  0  0  0  0  0  0  0  0
   -1.0778   -1.0048    0.0000 C   0  0  0  0  0  0  0  0  0  0  0  0
   -1.5627   -0.3373    0.0000 C   0  0  0  0  0  0  0  0  0  0  0  0
   -1.0778    0.3301    0.0000 N   0  0  0  0  0  0  0  0  0  0  0  0
   -0.2931    0.0752    0.0000 C   0  0  0  0  0  0  0  0  0  0  0  0
    0.4213    0.4877    0.0000 C   0  0  0  0  0  0  0  0  0  0  0  0
    1.1358    0.0752    0.0000 C   0  0  0  0  0  0  0  0  0  0  0  0
    1.1358   -0.7498    0.0000 C   0  0  0  0  0  0  0  0  0  0  0  0
    1.8503   -1.1623    0.0000 O   0  0  0  0  0  0  0  0  0  0  0  0
    0.4213   -1.1623    0.0000 C   0  0  0  0  0  0  0  0  0  0  0  0
   -0.2931   -0.7498    0.0000 C   0  0  0  0  0  0  0  0  0  0  0  0
   -3.2016   -2.9170    0.0000 H   0  0  0  0  0  0  0  0  0  0  0  0
   -1.8426   -3.3586    0.0000 H   0  0  0  0  0  0  0  0  0  0  0  0
   -2.3877   -0.3373    0.0000 H   0  0  0  0  0  0  0  0  0  0  0  0
   -2.3578   -1.1653    0.0000 H   0  0  0  0  0  0  0  0  0  0  0  0
   -2.9082   -1.6608    0.0000 H   0  0  0  0  0  0  0  0  0  0  0  0
    1.8503   -1.9873    0.0000 H   0  0  0  0  0  0  0  0  0  0  0  0
   -1.3327    1.1147    0.0000 H   0  0  0  0  0  0  0  0  0  0  0  0
    1.8503    0.4877    0.0000 H   0  0  0  0  0  0  0  0  0  0  0  0
    0.4213    1.3127    0.0000 H   0  0  0  0  0  0  0  0  0  0  0  0
   -1.1146   -2.5850    0.0000 H   0  0  0  0  0  0  0  0  0  0  0  0
   -0.5642   -2.0895    0.0000 H   0  0  0  0  0  0  0  0  0  0  0  0
    0.4213   -1.9873    0.0000 H   0  0  0  0  0  0  0  0  0  0  0  0
  1  2  1  0  0  0  0
  2  3  1  0  0  0  0
  3  4  1  0  0  0  0
  4  5  4  0  0  0  0
  4 13  4  0  0  0  0
  5  6  4  0  0  0  0
  6  7  4  0  0  0  0
  7  8  4  0  0  0  0
  7 13  4  0  0  0  0
  8  9  4  0  0  0  0
  9 10  4  0  0  0  0
 10 11  1  0  0  0  0
 10 12  4  0  0  0  0
 12 13  4  0  0  0  0
  1 14  1  0  0  0  0
  1 15  1  0  0  0  0
  5 16  1  0  0  0  0
  2 17  1  0  0  0  0
  2 18  1  0  0  0  0
 11 19  1  0  0  0  0
  6 20  1  0  0  0  0
  9 21  1  0  0  0  0
  8 22  1  0  0  0  0
  3 23  1  0  0  0  0
  3 24  1  0  0  0  0
 12 25  1  0  0  0  0
M  END
> <Molecule ChEMBL ID>
CHEMBL39

> <Class(50)>
0

> <Class(80)>
0

>  <salt>
false

>  <StandardizerResult>
Tautomerize (ID: Tautomerize)
Neutralize (ID: Neutralize)
Aromatize (ID: Aromatize)
Wedge Clean (ID: Wedge Clean)
Clean 2D (ID: Clean2D)

$$$$
CHEMBL127516
  Mrv2010 08032110442D          

 29 29  0  0  0  0            999 V2000
   -1.5003    0.7535    0.0000 C   0  0  0  0  0  0  0  0  0  0  0  0
   -0.7858    1.1660    0.0000 C   0  0  0  0  0  0  0  0  0  0  0  0
   -0.0713    0.7535    0.0000 C   0  0  0  0  0  0  0  0  0  0  0  0
    0.6431    1.1660    0.0000 C   0  0  0  0  0  0  0  0  0  0  0  0
    1.3576    0.7535    0.0000 O   0  0  0  0  0  0  0  0  0  0  0  0
    2.0721    1.1660    0.0000 C   0  0  0  0  0  0  0  0  0  0  0  0
    2.0721    1.9910    0.0000 O   0  0  0  0  0  0  0  0  0  0  0  0
    2.7866    0.7535    0.0000 C   0  0  0  0  0  0  0  0  0  0  0  0
    3.5010    1.1660    0.0000 C   0  0  0  0  0  0  0  0  0  0  0  0
    4.2155    0.7535    0.0000 C   0  0  0  0  0  0  0  0  0  0  0  0
    4.2155   -0.0715    0.0000 C   0  0  0  0  0  0  0  0  0  0  0  0
    4.9300   -0.4840    0.0000 N   0  0  0  0  0  0  0  0  0  0  0  0
    3.5010   -0.4840    0.0000 C   0  0  0  0  0  0  0  0  0  0  0  0
    2.7866   -0.0715    0.0000 C   0  0  0  0  0  0  0  0  0  0  0  0
    3.5010    1.9910    0.0000 H   0  0  0  0  0  0  0  0  0  0  0  0
   -1.9128    1.4680    0.0000 H   0  0  0  0  0  0  0  0  0  0  0  0
   -2.2147    0.3410    0.0000 H   0  0  0  0  0  0  0  0  0  0  0  0
   -1.0878    0.0391    0.0000 H   0  0  0  0  0  0  0  0  0  0  0  0
    4.9300   -1.3090    0.0000 H   0  0  0  0  0  0  0  0  0  0  0  0
    5.6444   -0.0715    0.0000 H   0  0  0  0  0  0  0  0  0  0  0  0
    2.0721   -0.4840    0.0000 H   0  0  0  0  0  0  0  0  0  0  0  0
    1.0134    1.9033    0.0000 H   0  0  0  0  0  0  0  0  0  0  0  0
    0.2729    1.9033    0.0000 H   0  0  0  0  0  0  0  0  0  0  0  0
   -0.4155    1.9033    0.0000 H   0  0  0  0  0  0  0  0  0  0  0  0
   -1.1561    1.9033    0.0000 H   0  0  0  0  0  0  0  0  0  0  0  0
   -0.4416    0.0163    0.0000 H   0  0  0  0  0  0  0  0  0  0  0  0
    0.2989    0.0163    0.0000 H   0  0  0  0  0  0  0  0  0  0  0  0
    3.5010   -1.3090    0.0000 H   0  0  0  0  0  0  0  0  0  0  0  0
    4.9300    1.1660    0.0000 H   0  0  0  0  0  0  0  0  0  0  0  0
  1  2  1  0  0  0  0
  2  3  1  0  0  0  0
  3  4  1  0  0  0  0
  4  5  1  0  0  0  0
  5  6  1  0  0  0  0
  6  7  2  0  0  0  0
  6  8  1  0  0  0  0
  8  9  4  0  0  0  0
  8 14  4  0  0  0  0
  9 10  4  0  0  0  0
 10 11  4  0  0  0  0
 11 12  1  0  0  0  0
 11 13  4  0  0  0  0
 13 14  4  0  0  0  0
  9 15  1  0  0  0  0
  1 16  1  0  0  0  0
  1 17  1  0  0  0  0
  1 18  1  0  0  0  0
 12 19  1  0  0  0  0
 12 20  1  0  0  0  0
 14 21  1  0  0  0  0
  4 22  1  0  0  0  0
  4 23  1  0  0  0  0
  2 24  1  0  0  0  0
  2 25  1  0  0  0  0
  3 26  1  0  0  0  0
  3 27  1  0  0  0  0
 13 28  1  0  0  0  0
 10 29  1  0  0  0  0
M  END
> <Molecule ChEMBL ID>
CHEMBL127516

> <Class(50)>
0

> <Class(80)>
0

>  <salt>
false

>  <StandardizerResult>
Tautomerize (ID: Tautomerize)
Neutralize (ID: Neutralize)
Aromatize (ID: Aromatize)
Wedge Clean (ID: Wedge Clean)
Clean 2D (ID: Clean2D)

$$$$
CHEMBL1898387
  Mrv2010 08032110442D          

 32 33  0  0  0  0            999 V2000
   -0.7524    3.8091    0.0000 C   0  0  0  0  0  0  0  0  0  0  0  0
   -0.0379    3.3966    0.0000 O   0  0  0  0  0  0  0  0  0  0  0  0
   -0.0379    2.5716    0.0000 C   0  0  0  0  0  0  0  0  0  0  0  0
    0.6765    2.1591    0.0000 C   0  0  0  0  0  0  0  0  0  0  0  0
    0.6765    1.3341    0.0000 C   0  0  0  0  0  0  0  0  0  0  0  0
   -0.0379    0.9216    0.0000 C   0  0  0  0  0  0  0  0  0  0  0  0
   -0.0379    0.0966    0.0000 C   0  0  0  0  0  0  0  0  0  0  0  0
    0.6765   -0.3159    0.0000 O   0  0  0  0  0  0  0  0  0  0  0  0
   -0.7524   -0.3159    0.0000 C   0  0  0  0  0  0  0  0  0  0  0  0
   -0.7524   -1.1409    0.0000 C   0  0  0  0  0  0  0  0  0  0  0  0
   -1.4669   -1.5534    0.0000 C   0  0  0  0  0  0  0  0  0  0  0  0
   -2.1814   -1.1409    0.0000 C   0  0  0  0  0  0  0  0  0  0  0  0
   -2.8958   -1.5534    0.0000 C   0  0  0  0  0  0  0  0  0  0  0  0
   -2.1814   -0.3159    0.0000 C   0  0  0  0  0  0  0  0  0  0  0  0
   -1.4669    0.0966    0.0000 C   0  0  0  0  0  0  0  0  0  0  0  0
   -0.7524    1.3341    0.0000 C   0  0  0  0  0  0  0  0  0  0  0  0
   -1.4669    0.9216    0.0000 O   0  0  0  0  0  0  0  0  0  0  0  0
   -0.7524    2.1591    0.0000 C   0  0  0  0  0  0  0  0  0  0  0  0
   -0.0379   -1.5534    0.0000 H   0  0  0  0  0  0  0  0  0  0  0  0
    1.3910    2.5716    0.0000 H   0  0  0  0  0  0  0  0  0  0  0  0
   -2.8958    0.0966    0.0000 H   0  0  0  0  0  0  0  0  0  0  0  0
    1.3910    0.9216    0.0000 H   0  0  0  0  0  0  0  0  0  0  0  0
   -2.1814    1.3341    0.0000 H   0  0  0  0  0  0  0  0  0  0  0  0
   -3.3083   -0.8389    0.0000 H   0  0  0  0  0  0  0  0  0  0  0  0
   -3.6103   -1.9659    0.0000 H   0  0  0  0  0  0  0  0  0  0  0  0
   -2.4833   -2.2679    0.0000 H   0  0  0  0  0  0  0  0  0  0  0  0
   -1.4669   -2.3784    0.0000 H   0  0  0  0  0  0  0  0  0  0  0  0
   -0.7524    0.5091    0.0000 H   0  0  0  0  0  0  0  0  0  0  0  0
   -1.4669    2.5716    0.0000 H   0  0  0  0  0  0  0  0  0  0  0  0
   -0.3399    4.5236    0.0000 H   0  0  0  0  0  0  0  0  0  0  0  0
   -1.4669    4.2216    0.0000 H   0  0  0  0  0  0  0  0  0  0  0  0
   -1.1649    3.0946    0.0000 H   0  0  0  0  0  0  0  0  0  0  0  0
  1  2  1  0  0  0  0
  2  3  1  0  0  0  0
  3  4  4  0  0  0  0
  3 18  4  0  0  0  0
  4  5  4  0  0  0  0
  5  6  4  0  0  0  0
  6  7  1  0  0  0  0
  6 16  4  0  0  0  0
  7  8  2  0  0  0  0
  7  9  1  0  0  0  0
  9 10  4  0  0  0  0
  9 15  4  0  0  0  0
 10 11  4  0  0  0  0
 11 12  4  0  0  0  0
 12 13  1  0  0  0  0
 12 14  4  0  0  0  0
 14 15  4  0  0  0  0
 16 17  1  0  0  0  0
 16 18  4  0  0  0  0
 10 19  1  0  0  0  0
  4 20  1  0  0  0  0
 14 21  1  0  0  0  0
  5 22  1  0  0  0  0
 17 23  1  0  0  0  0
 13 24  1  0  0  0  0
 13 25  1  0  0  0  0
 13 26  1  0  0  0  0
 11 27  1  0  0  0  0
 15 28  1  0  0  0  0
 18 29  1  0  0  0  0
  1 30  1  0  0  0  0
  1 31  1  0  0  0  0
  1 32  1  0  0  0  0
M  END
> <Molecule ChEMBL ID>
CHEMBL1898387

> <Class(50)>
0

> <Class(80)>
0

>  <salt>
false

>  <StandardizerResult>
Tautomerize (ID: Tautomerize)
Neutralize (ID: Neutralize)
Aromatize (ID: Aromatize)
Wedge Clean (ID: Wedge Clean)
Clean 2D (ID: Clean2D)

$$$$
CHEMBL2104260
  Mrv2010 08032110442D          

 30 30  0  0  0  0            999 V2000
   -1.2794   -0.1045    0.0000 C   0  0  0  0  0  0  0  0  0  0  0  0
   -0.5649    0.3080    0.0000 C   0  0  0  0  0  0  0  0  0  0  0  0
    0.1495   -0.1045    0.0000 O   0  0  0  0  0  0  0  0  0  0  0  0
    0.8640    0.3080    0.0000 C   0  0  0  0  0  0  0  0  0  0  0  0
    1.5785   -0.1045    0.0000 C   0  0  0  0  0  0  0  0  0  0  0  0
    2.2930    0.3080    0.0000 O   0  0  0  0  0  0  0  0  0  0  0  0
    3.0074   -0.1045    0.0000 C   0  0  0  0  0  0  0  0  0  0  0  0
    3.7219    0.3080    0.0000 C   0  0  0  0  0  0  0  0  0  0  0  0
    4.4364   -0.1045    0.0000 C   0  0  0  0  0  0  0  0  0  0  0  0
    4.4364   -0.9295    0.0000 C   0  0  0  0  0  0  0  0  0  0  0  0
    3.7219   -1.3420    0.0000 C   0  0  0  0  0  0  0  0  0  0  0  0
    3.0074   -0.9295    0.0000 C   0  0  0  0  0  0  0  0  0  0  0  0
    2.2930   -1.3420    0.0000 C   0  0  0  0  0  0  0  0  0  0  0  0
    2.2930   -2.1670    0.0000 O   0  0  0  0  0  0  0  0  0  0  0  0
    1.5785   -0.9295    0.0000 N   0  0  0  0  0  0  0  0  0  0  0  0
    1.2343    1.0452    0.0000 H   0  0  0  0  0  0  0  0  0  0  0  0
    0.4938    1.0452    0.0000 H   0  0  0  0  0  0  0  0  0  0  0  0
   -0.1947    1.0452    0.0000 H   0  0  0  0  0  0  0  0  0  0  0  0
   -0.9352    1.0452    0.0000 H   0  0  0  0  0  0  0  0  0  0  0  0
    3.7219    1.1330    0.0000 H   0  0  0  0  0  0  0  0  0  0  0  0
    0.9465   -1.4598    0.0000 H   0  0  0  0  0  0  0  0  0  0  0  0
    1.4352   -1.7420    0.0000 H   0  0  0  0  0  0  0  0  0  0  0  0
    0.8640   -0.5170    0.0000 H   0  0  0  0  0  0  0  0  0  0  0  0
    2.2930   -0.5170    0.0000 H   0  0  0  0  0  0  0  0  0  0  0  0
   -1.6919    0.6099    0.0000 H   0  0  0  0  0  0  0  0  0  0  0  0
   -1.9939   -0.5170    0.0000 H   0  0  0  0  0  0  0  0  0  0  0  0
   -0.8669   -0.8190    0.0000 H   0  0  0  0  0  0  0  0  0  0  0  0
    5.1508    0.3080    0.0000 H   0  0  0  0  0  0  0  0  0  0  0  0
    5.1508   -1.3420    0.0000 H   0  0  0  0  0  0  0  0  0  0  0  0
    3.7219   -2.1670    0.0000 H   0  0  0  0  0  0  0  0  0  0  0  0
  1  2  1  0  0  0  0
  2  3  1  0  0  0  0
  3  4  1  0  0  0  0
  4  5  1  0  0  0  0
  5  6  1  0  0  0  0
  6  7  1  0  0  0  0
  7  8  4  0  0  0  0
  7 12  4  0  0  0  0
  8  9  4  0  0  0  0
  9 10  4  0  0  0  0
 10 11  4  0  0  0  0
 11 12  4  0  0  0  0
 12 13  1  0  0  0  0
 13 14  2  0  0  0  0
 13 15  1  0  0  0  0
  4 16  1  0  0  0  0
  4 17  1  0  0  0  0
  2 18  1  0  0  0  0
  2 19  1  0  0  0  0
  8 20  1  0  0  0  0
 15 21  1  0  0  0  0
 15 22  1  0  0  0  0
  5 23  1  0  0  0  0
  5 24  1  0  0  0  0
  1 25  1  0  0  0  0
  1 26  1  0  0  0  0
  1 27  1  0  0  0  0
  9 28  1  0  0  0  0
 10 29  1  0  0  0  0
 11 30  1  0  0  0  0
M  END
> <Molecule ChEMBL ID>
CHEMBL2104260

> <Class(50)>
0

> <Class(80)>
0

>  <salt>
false

>  <StandardizerResult>
Tautomerize (ID: Tautomerize)
Neutralize (ID: Neutralize)
Aromatize (ID: Aromatize)
Wedge Clean (ID: Wedge Clean)
Clean 2D (ID: Clean2D)

$$$$
CHEMBL145
  Mrv2010 08032110442D          

 21 21  0  0  0  0            999 V2000
   -0.4300    2.3835    0.0000 O   0  0  0  0  0  0  0  0  0  0  0  0
    0.2845    1.9710    0.0000 C   0  0  0  0  0  0  0  0  0  0  0  0
    0.9990    2.3835    0.0000 O   0  0  0  0  0  0  0  0  0  0  0  0
    0.2845    1.1460    0.0000 C   0  0  0  0  0  0  0  0  0  0  0  0
    0.9990    0.7335    0.0000 C   0  0  0  0  0  0  0  0  0  0  0  0
    0.9990   -0.0915    0.0000 C   0  0  0  0  0  0  0  0  0  0  0  0
    1.7135   -0.5040    0.0000 C   0  0  0  0  0  0  0  0  0  0  0  0
    1.7135   -1.3290    0.0000 C   0  0  0  0  0  0  0  0  0  0  0  0
    0.9990   -1.7415    0.0000 C   0  0  0  0  0  0  0  0  0  0  0  0
    0.9990   -2.5665    0.0000 O   0  0  0  0  0  0  0  0  0  0  0  0
    0.2845   -1.3290    0.0000 C   0  0  0  0  0  0  0  0  0  0  0  0
   -0.4300   -1.7415    0.0000 O   0  0  0  0  0  0  0  0  0  0  0  0
    0.2845   -0.5040    0.0000 C   0  0  0  0  0  0  0  0  0  0  0  0
    2.4279   -0.0915    0.0000 H   0  0  0  0  0  0  0  0  0  0  0  0
   -1.1444   -1.3290    0.0000 H   0  0  0  0  0  0  0  0  0  0  0  0
    1.7135    1.1460    0.0000 H   0  0  0  0  0  0  0  0  0  0  0  0
    1.7135    1.9710    0.0000 H   0  0  0  0  0  0  0  0  0  0  0  0
    2.4279   -1.7415    0.0000 H   0  0  0  0  0  0  0  0  0  0  0  0
    0.2845   -2.9790    0.0000 H   0  0  0  0  0  0  0  0  0  0  0  0
   -0.4300   -0.0915    0.0000 H   0  0  0  0  0  0  0  0  0  0  0  0
   -0.4300    0.7335    0.0000 H   0  0  0  0  0  0  0  0  0  0  0  0
  1  2  2  0  0  0  0
  2  3  1  0  0  0  0
  2  4  1  0  0  0  0
  4  5  2  0  0  0  0
  5  6  1  0  0  0  0
  6  7  4  0  0  0  0
  6 13  4  0  0  0  0
  7  8  4  0  0  0  0
  8  9  4  0  0  0  0
  9 10  1  0  0  0  0
  9 11  4  0  0  0  0
 11 12  1  0  0  0  0
 11 13  4  0  0  0  0
  7 14  1  0  0  0  0
 12 15  1  0  0  0  0
  5 16  1  0  0  0  0
  3 17  1  0  0  0  0
  8 18  1  0  0  0  0
 10 19  1  0  0  0  0
 13 20  1  0  0  0  0
  4 21  1  0  0  0  0
M  END
> <Molecule ChEMBL ID>
CHEMBL145

> <Class(50)>
0

> <Class(80)>
0

>  <salt>
false

>  <StandardizerResult>
Tautomerize (ID: Tautomerize)
Neutralize (ID: Neutralize)
Aromatize (ID: Aromatize)
Wedge Clean (ID: Wedge Clean)
Clean 2D (ID: Clean2D)

$$$$
CHEMBL1483877
  Mrv2010 08032110442D          

 23 23  0  0  0  0            999 V2000
    0.7697    1.9929    0.0000 C   0  0  0  0  0  0  0  0  0  0  0  0
    0.7697    1.1679    0.0000 C   0  0  0  0  0  0  0  0  0  0  0  0
    1.4842    0.7554    0.0000 O   0  0  0  0  0  0  0  0  0  0  0  0
    1.4842   -0.0696    0.0000 C   0  0  0  0  0  0  0  0  0  0  0  0
    2.1987   -0.4821    0.0000 C   0  0  0  0  0  0  0  0  0  0  0  0
    2.1987   -1.3071    0.0000 C   0  0  0  0  0  0  0  0  0  0  0  0
    1.4842   -1.7196    0.0000 C   0  0  0  0  0  0  0  0  0  0  0  0
    0.7697   -1.3071    0.0000 C   0  0  0  0  0  0  0  0  0  0  0  0
    0.7697   -0.4821    0.0000 C   0  0  0  0  0  0  0  0  0  0  0  0
    0.0553   -0.0696    0.0000 C   0  0  0  0  0  0  0  0  0  0  0  0
   -0.6592   -0.4821    0.0000 O   0  0  0  0  0  0  0  0  0  0  0  0
    0.0553    0.7554    0.0000 N   0  0  0  0  0  0  0  0  0  0  0  0
   -0.7200    1.0376    0.0000 H   0  0  0  0  0  0  0  0  0  0  0  0
   -0.7200    0.4732    0.0000 H   0  0  0  0  0  0  0  0  0  0  0  0
    0.0553    1.5804    0.0000 H   0  0  0  0  0  0  0  0  0  0  0  0
    0.7697    0.3429    0.0000 H   0  0  0  0  0  0  0  0  0  0  0  0
    0.0553   -1.7196    0.0000 H   0  0  0  0  0  0  0  0  0  0  0  0
    1.4842   -2.5446    0.0000 H   0  0  0  0  0  0  0  0  0  0  0  0
    1.5947    1.9929    0.0000 H   0  0  0  0  0  0  0  0  0  0  0  0
    0.7697    2.8179    0.0000 H   0  0  0  0  0  0  0  0  0  0  0  0
   -0.0553    1.9929    0.0000 H   0  0  0  0  0  0  0  0  0  0  0  0
    2.9131   -0.0696    0.0000 H   0  0  0  0  0  0  0  0  0  0  0  0
    2.9131   -1.7196    0.0000 H   0  0  0  0  0  0  0  0  0  0  0  0
  1  2  1  0  0  0  0
  2  3  1  0  0  0  0
  3  4  1  0  0  0  0
  4  5  4  0  0  0  0
  4  9  4  0  0  0  0
  5  6  4  0  0  0  0
  6  7  4  0  0  0  0
  7  8  4  0  0  0  0
  8  9  4  0  0  0  0
  9 10  1  0  0  0  0
 10 11  2  0  0  0  0
 10 12  1  0  0  0  0
 12 13  1  0  0  0  0
 12 14  1  0  0  0  0
  2 15  1  0  0  0  0
  2 16  1  0  0  0  0
  8 17  1  0  0  0  0
  7 18  1  0  0  0  0
  1 19  1  0  0  0  0
  1 20  1  0  0  0  0
  1 21  1  0  0  0  0
  5 22  1  0  0  0  0
  6 23  1  0  0  0  0
M  END
> <Molecule ChEMBL ID>
CHEMBL1483877

> <Class(50)>
0

> <Class(80)>
0

>  <salt>
false

>  <StandardizerResult>
Tautomerize (ID: Tautomerize)
Neutralize (ID: Neutralize)
Aromatize (ID: Aromatize)
Wedge Clean (ID: Wedge Clean)
Clean 2D (ID: Clean2D)

$$$$
CHEMBL2106646
  Mrv2010 08032110442D          

 27 27  0  0  0  0            999 V2000
   -0.1822    2.0501    0.0000 C   0  0  0  0  0  0  0  0  0  0  0  0
    0.5323    1.6376    0.0000 C   0  0  0  0  0  0  0  0  0  0  0  0
    0.5323    0.8126    0.0000 C   0  0  0  0  0  0  0  0  0  0  0  0
    1.2467    0.4001    0.0000 C   0  0  0  0  0  0  0  0  0  0  0  0
    1.2467   -0.4249    0.0000 C   0  0  0  0  0  0  0  0  0  0  0  0
    1.9612   -0.8374    0.0000 C   0  0  0  0  0  0  0  0  0  0  0  0
    1.9612   -1.6624    0.0000 C   0  0  0  0  0  0  0  0  0  0  0  0
    1.2467   -2.0749    0.0000 C   0  0  0  0  0  0  0  0  0  0  0  0
    1.2467   -2.8999    0.0000 C   0  0  0  0  0  0  0  0  0  0  0  0
    1.9612   -3.3124    0.0000 O   0  0  0  0  0  0  0  0  0  0  0  0
    0.5323   -3.3124    0.0000 N   0  0  0  0  0  0  0  0  0  0  0  0
    0.5323   -1.6624    0.0000 N   0  0  0  0  0  0  0  0  0  0  0  0
    0.5323   -0.8374    0.0000 C   0  0  0  0  0  0  0  0  0  0  0  0
   -0.2913    0.7647    0.0000 H   0  0  0  0  0  0  0  0  0  0  0  0
    0.0789    0.1234    0.0000 H   0  0  0  0  0  0  0  0  0  0  0  0
    2.6757   -0.4249    0.0000 H   0  0  0  0  0  0  0  0  0  0  0  0
   -0.1822   -0.4249    0.0000 H   0  0  0  0  0  0  0  0  0  0  0  0
    0.2303    2.7646    0.0000 H   0  0  0  0  0  0  0  0  0  0  0  0
   -0.8967    2.4626    0.0000 H   0  0  0  0  0  0  0  0  0  0  0  0
   -0.5947    1.3357    0.0000 H   0  0  0  0  0  0  0  0  0  0  0  0
   -0.1822   -2.8999    0.0000 H   0  0  0  0  0  0  0  0  0  0  0  0
    0.5323   -4.1374    0.0000 H   0  0  0  0  0  0  0  0  0  0  0  0
    2.6757   -2.0749    0.0000 H   0  0  0  0  0  0  0  0  0  0  0  0
    2.0703    0.4481    0.0000 H   0  0  0  0  0  0  0  0  0  0  0  0
    1.7001    1.0894    0.0000 H   0  0  0  0  0  0  0  0  0  0  0  0
    1.3559    1.6856    0.0000 H   0  0  0  0  0  0  0  0  0  0  0  0
    0.9856    2.3269    0.0000 H   0  0  0  0  0  0  0  0  0  0  0  0
  1  2  1  0  0  0  0
  2  3  1  0  0  0  0
  3  4  1  0  0  0  0
  4  5  1  0  0  0  0
  5  6  4  0  0  0  0
  5 13  4  0  0  0  0
  6  7  4  0  0  0  0
  7  8  4  0  0  0  0
  8  9  1  0  0  0  0
  8 12  4  0  0  0  0
  9 10  2  0  0  0  0
  9 11  1  0  0  0  0
 12 13  4  0  0  0  0
  3 14  1  0  0  0  0
  3 15  1  0  0  0  0
  6 16  1  0  0  0  0
 13 17  1  0  0  0  0
  1 18  1  0  0  0  0
  1 19  1  0  0  0  0
  1 20  1  0  0  0  0
 11 21  1  0  0  0  0
 11 22  1  0  0  0  0
  7 23  1  0  0  0  0
  4 24  1  0  0  0  0
  4 25  1  0  0  0  0
  2 26  1  0  0  0  0
  2 27  1  0  0  0  0
M  END
> <Molecule ChEMBL ID>
CHEMBL2106646

> <Class(50)>
0

> <Class(80)>
0

>  <salt>
false

>  <StandardizerResult>
Tautomerize (ID: Tautomerize)
Neutralize (ID: Neutralize)
Aromatize (ID: Aromatize)
Wedge Clean (ID: Wedge Clean)
Clean 2D (ID: Clean2D)

$$$$
CHEMBL8145
  Mrv2010 08032110442D          

 29 31  0  0  0  0            999 V2000
   -0.1748   -2.9042    0.0000 O   0  0  0  0  0  0  0  0  0  0  0  0
   -0.1748   -2.0792    0.0000 C   0  0  0  0  0  0  0  0  0  0  0  0
   -0.8893   -1.6667    0.0000 C   0  0  0  0  0  0  0  0  0  0  0  0
   -1.6037   -2.0792    0.0000 C   0  0  0  0  0  0  0  0  0  0  0  0
   -1.6037   -2.9042    0.0000 C   0  0  0  0  0  0  0  0  0  0  0  0
   -2.3182   -3.3167    0.0000 C   0  0  0  0  0  0  0  0  0  0  0  0
   -3.0327   -2.9042    0.0000 C   0  0  0  0  0  0  0  0  0  0  0  0
   -3.7471   -3.3167    0.0000 O   0  0  0  0  0  0  0  0  0  0  0  0
   -3.0327   -2.0792    0.0000 C   0  0  0  0  0  0  0  0  0  0  0  0
   -2.3182   -1.6667    0.0000 C   0  0  0  0  0  0  0  0  0  0  0  0
   -0.8893   -0.8417    0.0000 C   0  0  0  0  0  0  0  0  0  0  0  0
   -0.1748   -0.4292    0.0000 O   0  0  0  0  0  0  0  0  0  0  0  0
    0.5397   -0.8417    0.0000 C   0  0  0  0  0  0  0  0  0  0  0  0
    1.2542   -0.4292    0.0000 C   0  0  0  0  0  0  0  0  0  0  0  0
    1.9686   -0.8417    0.0000 C   0  0  0  0  0  0  0  0  0  0  0  0
    2.6831   -0.4292    0.0000 O   0  0  0  0  0  0  0  0  0  0  0  0
    1.9686   -1.6667    0.0000 C   0  0  0  0  0  0  0  0  0  0  0  0
    1.2542   -2.0792    0.0000 C   0  0  0  0  0  0  0  0  0  0  0  0
    0.5397   -1.6667    0.0000 C   0  0  0  0  0  0  0  0  0  0  0  0
   -4.4616   -2.9042    0.0000 H   0  0  0  0  0  0  0  0  0  0  0  0
    1.2542    0.3958    0.0000 H   0  0  0  0  0  0  0  0  0  0  0  0
   -2.3182   -0.8417    0.0000 H   0  0  0  0  0  0  0  0  0  0  0  0
   -0.8893   -3.3167    0.0000 H   0  0  0  0  0  0  0  0  0  0  0  0
   -3.7471   -1.6667    0.0000 H   0  0  0  0  0  0  0  0  0  0  0  0
   -2.3182   -4.1417    0.0000 H   0  0  0  0  0  0  0  0  0  0  0  0
   -1.6037   -0.4292    0.0000 H   0  0  0  0  0  0  0  0  0  0  0  0
    2.6831   -2.0792    0.0000 H   0  0  0  0  0  0  0  0  0  0  0  0
    1.2542   -2.9042    0.0000 H   0  0  0  0  0  0  0  0  0  0  0  0
    3.3976   -0.8417    0.0000 H   0  0  0  0  0  0  0  0  0  0  0  0
  1  2  2  0  0  0  0
  2  3  1  0  0  0  0
  2 19  1  0  0  0  0
  3  4  1  0  0  0  0
  3 11  2  0  0  0  0
  4  5  4  0  0  0  0
  4 10  4  0  0  0  0
  5  6  4  0  0  0  0
  6  7  4  0  0  0  0
  7  8  1  0  0  0  0
  7  9  4  0  0  0  0
  9 10  4  0  0  0  0
 11 12  1  0  0  0  0
 12 13  1  0  0  0  0
 13 14  4  0  0  0  0
 13 19  4  0  0  0  0
 14 15  4  0  0  0  0
 15 16  1  0  0  0  0
 15 17  4  0  0  0  0
 17 18  4  0  0  0  0
 18 19  4  0  0  0  0
  8 20  1  0  0  0  0
 14 21  1  0  0  0  0
 10 22  1  0  0  0  0
  5 23  1  0  0  0  0
  9 24  1  0  0  0  0
  6 25  1  0  0  0  0
 11 26  1  0  0  0  0
 17 27  1  0  0  0  0
 18 28  1  0  0  0  0
 16 29  1  0  0  0  0
M  END
> <Molecule ChEMBL ID>
CHEMBL8145

> <Class(50)>
0

> <Class(80)>
0

>  <salt>
false

>  <StandardizerResult>
Tautomerize (ID: Tautomerize)
Neutralize (ID: Neutralize)
Aromatize (ID: Aromatize)
Wedge Clean (ID: Wedge Clean)
Clean 2D (ID: Clean2D)

$$$$
CHEMBL35482
  Mrv2010 08032110442D          

 33 35  0  0  0  0            999 V2000
   -2.5520   -4.7493    0.0000 C   0  0  0  0  0  0  0  0  0  0  0  0
   -1.8375   -4.3368    0.0000 O   0  0  0  0  0  0  0  0  0  0  0  0
   -1.8375   -3.5118    0.0000 C   0  0  0  0  0  0  0  0  0  0  0  0
   -2.5520   -3.0993    0.0000 C   0  0  0  0  0  0  0  0  0  0  0  0
   -2.5520   -2.2743    0.0000 C   0  0  0  0  0  0  0  0  0  0  0  0
   -1.8375   -1.8618    0.0000 C   0  0  0  0  0  0  0  0  0  0  0  0
   -1.1231   -2.2743    0.0000 C   0  0  0  0  0  0  0  0  0  0  0  0
   -0.4086   -1.8618    0.0000 C   0  0  0  0  0  0  0  0  0  0  0  0
   -0.4086   -1.0368    0.0000 C   0  0  0  0  0  0  0  0  0  0  0  0
    0.3059   -0.6243    0.0000 C   0  0  0  0  0  0  0  0  0  0  0  0
    0.3059    0.2007    0.0000 O   0  0  0  0  0  0  0  0  0  0  0  0
    1.0203   -1.0368    0.0000 C   0  0  0  0  0  0  0  0  0  0  0  0
    1.7348   -0.6243    0.0000 C   0  0  0  0  0  0  0  0  0  0  0  0
    2.4493   -1.0368    0.0000 C   0  0  0  0  0  0  0  0  0  0  0  0
    2.4493   -1.8618    0.0000 C   0  0  0  0  0  0  0  0  0  0  0  0
    1.7348   -2.2743    0.0000 C   0  0  0  0  0  0  0  0  0  0  0  0
    1.0203   -1.8618    0.0000 C   0  0  0  0  0  0  0  0  0  0  0  0
    0.3059   -2.2743    0.0000 O   0  0  0  0  0  0  0  0  0  0  0  0
   -1.1231   -3.0993    0.0000 C   0  0  0  0  0  0  0  0  0  0  0  0
   -0.4086   -3.5118    0.0000 N   0  0  0  0  0  0  0  0  0  0  0  0
    1.7348    0.2007    0.0000 H   0  0  0  0  0  0  0  0  0  0  0  0
    3.1638   -2.2743    0.0000 H   0  0  0  0  0  0  0  0  0  0  0  0
    1.7348   -3.0993    0.0000 H   0  0  0  0  0  0  0  0  0  0  0  0
   -1.1231   -0.6243    0.0000 H   0  0  0  0  0  0  0  0  0  0  0  0
   -0.4086   -4.3368    0.0000 H   0  0  0  0  0  0  0  0  0  0  0  0
    0.3059   -3.0993    0.0000 H   0  0  0  0  0  0  0  0  0  0  0  0
    3.1638   -0.6243    0.0000 H   0  0  0  0  0  0  0  0  0  0  0  0
   -1.8375   -1.0368    0.0000 H   0  0  0  0  0  0  0  0  0  0  0  0
   -3.2665   -3.5118    0.0000 H   0  0  0  0  0  0  0  0  0  0  0  0
   -2.9645   -4.0348    0.0000 H   0  0  0  0  0  0  0  0  0  0  0  0
   -3.2665   -5.1618    0.0000 H   0  0  0  0  0  0  0  0  0  0  0  0
   -2.1395   -5.4638    0.0000 H   0  0  0  0  0  0  0  0  0  0  0  0
   -3.2665   -1.8618    0.0000 H   0  0  0  0  0  0  0  0  0  0  0  0
  1  2  1  0  0  0  0
  2  3  1  0  0  0  0
  3  4  4  0  0  0  0
  3 19  4  0  0  0  0
  4  5  4  0  0  0  0
  5  6  4  0  0  0  0
  6  7  4  0  0  0  0
  7  8  1  0  0  0  0
  7 19  4  0  0  0  0
  8  9  2  0  0  0  0
  8 18  1  0  0  0  0
  9 10  1  0  0  0  0
 10 11  2  0  0  0  0
 10 12  1  0  0  0  0
 12 13  4  0  0  0  0
 12 17  4  0  0  0  0
 13 14  4  0  0  0  0
 14 15  4  0  0  0  0
 15 16  4  0  0  0  0
 16 17  4  0  0  0  0
 17 18  1  0  0  0  0
 19 20  1  0  0  0  0
 13 21  1  0  0  0  0
 15 22  1  0  0  0  0
 16 23  1  0  0  0  0
  9 24  1  0  0  0  0
 20 25  1  0  0  0  0
 20 26  1  0  0  0  0
 14 27  1  0  0  0  0
  6 28  1  0  0  0  0
  4 29  1  0  0  0  0
  1 30  1  0  0  0  0
  1 31  1  0  0  0  0
  1 32  1  0  0  0  0
  5 33  1  0  0  0  0
M  END
> <Molecule ChEMBL ID>
CHEMBL35482

> <Class(50)>
0

> <Class(80)>
0

>  <salt>
false

>  <StandardizerResult>
Tautomerize (ID: Tautomerize)
Neutralize (ID: Neutralize)
Aromatize (ID: Aromatize)
Wedge Clean (ID: Wedge Clean)
Clean 2D (ID: Clean2D)

$$$$
CHEMBL244948
  Mrv2010 08032110442D          

 19 20  0  0  0  0            999 V2000
   -3.0537   -0.1524    0.0000 O   0  0  0  0  0  0  0  0  0  0  0  0
   -2.3392    0.2601    0.0000 C   0  0  0  0  0  0  0  0  0  0  0  0
   -2.3392    1.0851    0.0000 C   0  0  0  0  0  0  0  0  0  0  0  0
   -1.6248    1.4976    0.0000 C   0  0  0  0  0  0  0  0  0  0  0  0
   -0.9103    1.0851    0.0000 C   0  0  0  0  0  0  0  0  0  0  0  0
   -0.1958    1.4976    0.0000 C   0  0  0  0  0  0  0  0  0  0  0  0
    0.5186    1.0851    0.0000 C   0  0  0  0  0  0  0  0  0  0  0  0
    0.5186    0.2601    0.0000 C   0  0  0  0  0  0  0  0  0  0  0  0
    1.2331   -0.1524    0.0000 O   0  0  0  0  0  0  0  0  0  0  0  0
   -0.1958   -0.1524    0.0000 C   0  0  0  0  0  0  0  0  0  0  0  0
   -0.1958   -0.9774    0.0000 O   0  0  0  0  0  0  0  0  0  0  0  0
   -0.9103    0.2601    0.0000 C   0  0  0  0  0  0  0  0  0  0  0  0
   -1.6248   -0.1524    0.0000 O   0  0  0  0  0  0  0  0  0  0  0  0
   -0.9103   -1.3899    0.0000 H   0  0  0  0  0  0  0  0  0  0  0  0
   -3.0537    1.4976    0.0000 H   0  0  0  0  0  0  0  0  0  0  0  0
   -1.6248    2.3226    0.0000 H   0  0  0  0  0  0  0  0  0  0  0  0
   -0.1958    2.3226    0.0000 H   0  0  0  0  0  0  0  0  0  0  0  0
    1.2331    1.4976    0.0000 H   0  0  0  0  0  0  0  0  0  0  0  0
    1.2331   -0.9774    0.0000 H   0  0  0  0  0  0  0  0  0  0  0  0
  1  2  2  0  0  0  0
  2  3  1  0  0  0  0
  2 13  1  0  0  0  0
  3  4  2  0  0  0  0
  4  5  1  0  0  0  0
  5  6  4  0  0  0  0
  5 12  4  0  0  0  0
  6  7  4  0  0  0  0
  7  8  4  0  0  0  0
  8  9  1  0  0  0  0
  8 10  4  0  0  0  0
 10 11  1  0  0  0  0
 10 12  4  0  0  0  0
 12 13  1  0  0  0  0
 11 14  1  0  0  0  0
  3 15  1  0  0  0  0
  4 16  1  0  0  0  0
  6 17  1  0  0  0  0
  7 18  1  0  0  0  0
  9 19  1  0  0  0  0
M  END
> <Molecule ChEMBL ID>
CHEMBL244948

> <Class(50)>
1

> <Class(80)>
0

>  <salt>
false

>  <StandardizerResult>
Tautomerize (ID: Tautomerize)
Neutralize (ID: Neutralize)
Aromatize (ID: Aromatize)
Wedge Clean (ID: Wedge Clean)
Clean 2D (ID: Clean2D)

$$$$
CHEMBL123904
  Mrv2010 08032110442D          

 21 22  0  0  0  0            999 V2000
   -1.7237   -0.3538    0.0000 C   0  0  0  0  0  0  0  0  0  0  0  0
   -1.0092   -0.7663    0.0000 C   0  0  0  0  0  0  0  0  0  0  0  0
   -0.2947   -0.3538    0.0000 N   0  0  0  0  0  0  0  0  0  0  0  0
    0.4197   -0.7663    0.0000 C   0  0  0  0  0  0  0  0  0  0  0  0
    1.1342   -0.3538    0.0000 C   0  0  0  0  0  0  0  0  0  0  0  0
    1.1342    0.4712    0.0000 O   0  0  0  0  0  0  0  0  0  0  0  0
    1.8487   -0.7663    0.0000 C   0  0  0  0  0  0  0  0  0  0  0  0
    1.8487   -1.5913    0.0000 C   0  0  0  0  0  0  0  0  0  0  0  0
    1.1342   -2.0038    0.0000 C   0  0  0  0  0  0  0  0  0  0  0  0
    0.4197   -1.5913    0.0000 C   0  0  0  0  0  0  0  0  0  0  0  0
   -0.2947   -2.0038    0.0000 C   0  0  0  0  0  0  0  0  0  0  0  0
   -0.2947   -2.8288    0.0000 O   0  0  0  0  0  0  0  0  0  0  0  0
   -1.0092   -1.5913    0.0000 N   0  0  0  0  0  0  0  0  0  0  0  0
   -0.2947    0.4712    0.0000 H   0  0  0  0  0  0  0  0  0  0  0  0
    2.5631   -2.0038    0.0000 H   0  0  0  0  0  0  0  0  0  0  0  0
    1.8487    0.8837    0.0000 H   0  0  0  0  0  0  0  0  0  0  0  0
   -1.3112    0.3607    0.0000 H   0  0  0  0  0  0  0  0  0  0  0  0
   -2.4382    0.0587    0.0000 H   0  0  0  0  0  0  0  0  0  0  0  0
   -2.1362   -1.0682    0.0000 H   0  0  0  0  0  0  0  0  0  0  0  0
    2.5631   -0.3538    0.0000 H   0  0  0  0  0  0  0  0  0  0  0  0
    1.1342   -2.8288    0.0000 H   0  0  0  0  0  0  0  0  0  0  0  0
  1  2  1  0  0  0  0
  2  3  1  0  0  0  0
  2 13  2  0  0  0  0
  3  4  1  0  0  0  0
  4  5  4  0  0  0  0
  4 10  4  0  0  0  0
  5  6  1  0  0  0  0
  5  7  4  0  0  0  0
  7  8  4  0  0  0  0
  8  9  4  0  0  0  0
  9 10  4  0  0  0  0
 10 11  1  0  0  0  0
 11 12  2  0  0  0  0
 11 13  1  0  0  0  0
  3 14  1  0  0  0  0
  8 15  1  0  0  0  0
  6 16  1  0  0  0  0
  1 17  1  0  0  0  0
  1 18  1  0  0  0  0
  1 19  1  0  0  0  0
  7 20  1  0  0  0  0
  9 21  1  0  0  0  0
M  END
> <Molecule ChEMBL ID>
CHEMBL123904

> <Class(50)>
0

> <Class(80)>
0

>  <salt>
false

>  <StandardizerResult>
Tautomerize (ID: Tautomerize)
Neutralize (ID: Neutralize)
Aromatize (ID: Aromatize)
Wedge Clean (ID: Wedge Clean)
Clean 2D (ID: Clean2D)

$$$$
CHEMBL252124
  Mrv2010 08032110442D          

 44 46  0  0  0  0            999 V2000
    2.8161   -0.3384    0.0000 C   0  0  0  0  0  0  0  0  0  0  0  0
    2.1017   -0.7509    0.0000 C   0  0  0  0  0  0  0  0  0  0  0  0
    1.3872   -0.3384    0.0000 N   0  0  0  0  0  0  0  0  0  0  0  0
    0.6727   -0.7509    0.0000 C   0  0  0  0  0  0  0  0  0  0  0  0
   -0.0418   -0.3384    0.0000 O   0  0  0  0  0  0  0  0  0  0  0  0
    0.6727   -1.5759    0.0000 C   0  0  0  0  0  0  0  0  0  0  0  0
    1.3401   -2.0608    0.0000 N   0  0  0  0  0  0  0  0  0  0  0  0
    1.0852   -2.8454    0.0000 O   0  0  0  0  0  0  0  0  0  0  0  0
    0.2602   -2.8454    0.0000 C   0  0  0  0  0  0  0  0  0  0  0  0
   -0.2247   -3.5129    0.0000 C   0  0  0  0  0  0  0  0  0  0  0  0
   -1.0452   -3.4266    0.0000 C   0  0  0  0  0  0  0  0  0  0  0  0
   -1.5301   -4.0941    0.0000 C   0  0  0  0  0  0  0  0  0  0  0  0
   -2.3506   -4.0078    0.0000 Cl  0  0  0  0  0  0  0  0  0  0  0  0
   -1.1946   -4.8477    0.0000 C   0  0  0  0  0  0  0  0  0  0  0  0
   -1.6795   -5.5152    0.0000 O   0  0  0  0  0  0  0  0  0  0  0  0
   -0.3741   -4.9340    0.0000 C   0  0  0  0  0  0  0  0  0  0  0  0
    0.1108   -4.2665    0.0000 C   0  0  0  0  0  0  0  0  0  0  0  0
    0.9313   -4.3528    0.0000 O   0  0  0  0  0  0  0  0  0  0  0  0
    0.0053   -2.0608    0.0000 C   0  0  0  0  0  0  0  0  0  0  0  0
   -0.7794   -1.8059    0.0000 C   0  0  0  0  0  0  0  0  0  0  0  0
   -1.3924   -2.3579    0.0000 C   0  0  0  0  0  0  0  0  0  0  0  0
   -2.1771   -2.1029    0.0000 C   0  0  0  0  0  0  0  0  0  0  0  0
   -2.3486   -1.2960    0.0000 C   0  0  0  0  0  0  0  0  0  0  0  0
   -3.1332   -1.0410    0.0000 O   0  0  0  0  0  0  0  0  0  0  0  0
   -3.7463   -1.5931    0.0000 C   0  0  0  0  0  0  0  0  0  0  0  0
   -1.7355   -0.7439    0.0000 C   0  0  0  0  0  0  0  0  0  0  0  0
   -0.9509   -0.9989    0.0000 C   0  0  0  0  0  0  0  0  0  0  0  0
    1.3872    0.4866    0.0000 H   0  0  0  0  0  0  0  0  0  0  0  0
   -0.0385   -5.6876    0.0000 H   0  0  0  0  0  0  0  0  0  0  0  0
   -0.3378   -0.4468    0.0000 H   0  0  0  0  0  0  0  0  0  0  0  0
   -4.2983   -0.9800    0.0000 H   0  0  0  0  0  0  0  0  0  0  0  0
   -4.3594   -2.1451    0.0000 H   0  0  0  0  0  0  0  0  0  0  0  0
   -3.1943   -2.2062    0.0000 H   0  0  0  0  0  0  0  0  0  0  0  0
   -1.9070    0.0630    0.0000 H   0  0  0  0  0  0  0  0  0  0  0  0
    3.2286   -1.0528    0.0000 H   0  0  0  0  0  0  0  0  0  0  0  0
    3.5306    0.0741    0.0000 H   0  0  0  0  0  0  0  0  0  0  0  0
    2.4036    0.3761    0.0000 H   0  0  0  0  0  0  0  0  0  0  0  0
    1.7314   -1.4881    0.0000 H   0  0  0  0  0  0  0  0  0  0  0  0
    2.4719   -1.4881    0.0000 H   0  0  0  0  0  0  0  0  0  0  0  0
   -1.3808   -2.6729    0.0000 H   0  0  0  0  0  0  0  0  0  0  0  0
   -2.7902   -2.6550    0.0000 H   0  0  0  0  0  0  0  0  0  0  0  0
    1.2669   -5.1064    0.0000 H   0  0  0  0  0  0  0  0  0  0  0  0
   -0.6327   -2.6794    0.0000 H   0  0  0  0  0  0  0  0  0  0  0  0
   -2.5000   -5.4289    0.0000 H   0  0  0  0  0  0  0  0  0  0  0  0
  1  2  1  0  0  0  0
  2  3  1  0  0  0  0
  3  4  1  0  0  0  0
  4  5  2  0  0  0  0
  4  6  1  0  0  0  0
  6  7  4  0  0  0  0
  6 19  4  0  0  0  0
  7  8  4  0  0  0  0
  8  9  4  0  0  0  0
  9 10  1  0  0  0  0
  9 19  4  0  0  0  0
 10 11  4  0  0  0  0
 10 17  4  0  0  0  0
 11 12  4  0  0  0  0
 12 13  1  0  0  0  0
 12 14  4  0  0  0  0
 14 15  1  0  0  0  0
 14 16  4  0  0  0  0
 16 17  4  0  0  0  0
 17 18  1  0  0  0  0
 19 20  1  0  0  0  0
 20 21  4  0  0  0  0
 20 27  4  0  0  0  0
 21 22  4  0  0  0  0
 22 23  4  0  0  0  0
 23 24  1  0  0  0  0
 23 26  4  0  0  0  0
 24 25  1  0  0  0  0
 26 27  4  0  0  0  0
  3 28  1  0  0  0  0
 16 29  1  0  0  0  0
 27 30  1  0  0  0  0
 25 31  1  0  0  0  0
 25 32  1  0  0  0  0
 25 33  1  0  0  0  0
 26 34  1  0  0  0  0
  1 35  1  0  0  0  0
  1 36  1  0  0  0  0
  1 37  1  0  0  0  0
  2 38  1  0  0  0  0
  2 39  1  0  0  0  0
 11 40  1  0  0  0  0
 22 41  1  0  0  0  0
 18 42  1  0  0  0  0
 21 43  1  0  0  0  0
 15 44  1  0  0  0  0
M  END
> <Molecule ChEMBL ID>
CHEMBL252124

> <Class(50)>
0

> <Class(80)>
0

>  <salt>
false

>  <StandardizerResult>
Tautomerize (ID: Tautomerize)
Neutralize (ID: Neutralize)
Aromatize (ID: Aromatize)
Wedge Clean (ID: Wedge Clean)
Clean 2D (ID: Clean2D)

$$$$
CHEMBL365617
  Mrv2010 08032110442D          

 45 47  0  0  0  0            999 V2000
    2.8202   -0.3396    0.0000 C   0  0  0  0  0  0  0  0  0  0  0  0
    2.1057   -0.7521    0.0000 C   0  0  0  0  0  0  0  0  0  0  0  0
    1.3913   -0.3396    0.0000 N   0  0  0  0  0  0  0  0  0  0  0  0
    0.6768   -0.7521    0.0000 C   0  0  0  0  0  0  0  0  0  0  0  0
   -0.0377   -0.3396    0.0000 O   0  0  0  0  0  0  0  0  0  0  0  0
    0.6768   -1.5771    0.0000 C   0  0  0  0  0  0  0  0  0  0  0  0
    1.3442   -2.0621    0.0000 N   0  0  0  0  0  0  0  0  0  0  0  0
    1.0893   -2.8467    0.0000 N   0  0  0  0  0  0  0  0  0  0  0  0
    0.2643   -2.8467    0.0000 C   0  0  0  0  0  0  0  0  0  0  0  0
   -0.2206   -3.5141    0.0000 C   0  0  0  0  0  0  0  0  0  0  0  0
   -1.0411   -3.4279    0.0000 C   0  0  0  0  0  0  0  0  0  0  0  0
   -1.5260   -4.0953    0.0000 C   0  0  0  0  0  0  0  0  0  0  0  0
   -2.3465   -4.0091    0.0000 Cl  0  0  0  0  0  0  0  0  0  0  0  0
   -1.1905   -4.8490    0.0000 C   0  0  0  0  0  0  0  0  0  0  0  0
   -1.6754   -5.5164    0.0000 O   0  0  0  0  0  0  0  0  0  0  0  0
   -0.3700   -4.9352    0.0000 C   0  0  0  0  0  0  0  0  0  0  0  0
    0.1149   -4.2678    0.0000 C   0  0  0  0  0  0  0  0  0  0  0  0
    0.9354   -4.3540    0.0000 O   0  0  0  0  0  0  0  0  0  0  0  0
    0.0094   -2.0621    0.0000 C   0  0  0  0  0  0  0  0  0  0  0  0
   -0.7753   -1.8071    0.0000 C   0  0  0  0  0  0  0  0  0  0  0  0
   -1.3884   -2.3592    0.0000 C   0  0  0  0  0  0  0  0  0  0  0  0
   -2.1730   -2.1042    0.0000 C   0  0  0  0  0  0  0  0  0  0  0  0
   -2.3445   -1.2972    0.0000 C   0  0  0  0  0  0  0  0  0  0  0  0
   -3.1291   -1.0423    0.0000 O   0  0  0  0  0  0  0  0  0  0  0  0
   -3.7422   -1.5943    0.0000 C   0  0  0  0  0  0  0  0  0  0  0  0
   -1.7314   -0.7452    0.0000 C   0  0  0  0  0  0  0  0  0  0  0  0
   -0.9468   -1.0001    0.0000 C   0  0  0  0  0  0  0  0  0  0  0  0
    1.7355   -1.4894    0.0000 H   0  0  0  0  0  0  0  0  0  0  0  0
    2.4760   -1.4894    0.0000 H   0  0  0  0  0  0  0  0  0  0  0  0
    2.0847   -2.4259    0.0000 H   0  0  0  0  0  0  0  0  0  0  0  0
   -1.3767   -2.6742    0.0000 H   0  0  0  0  0  0  0  0  0  0  0  0
   -4.2943   -0.9812    0.0000 H   0  0  0  0  0  0  0  0  0  0  0  0
   -4.3553   -2.1464    0.0000 H   0  0  0  0  0  0  0  0  0  0  0  0
   -3.1902   -2.2074    0.0000 H   0  0  0  0  0  0  0  0  0  0  0  0
   -0.3337   -0.4481    0.0000 H   0  0  0  0  0  0  0  0  0  0  0  0
   -2.7861   -2.6562    0.0000 H   0  0  0  0  0  0  0  0  0  0  0  0
    1.2710   -5.1077    0.0000 H   0  0  0  0  0  0  0  0  0  0  0  0
    3.2327   -1.0541    0.0000 H   0  0  0  0  0  0  0  0  0  0  0  0
    3.5347    0.0729    0.0000 H   0  0  0  0  0  0  0  0  0  0  0  0
    2.4077    0.3748    0.0000 H   0  0  0  0  0  0  0  0  0  0  0  0
   -2.4959   -5.4302    0.0000 H   0  0  0  0  0  0  0  0  0  0  0  0
   -0.0344   -5.6889    0.0000 H   0  0  0  0  0  0  0  0  0  0  0  0
   -0.6286   -2.6807    0.0000 H   0  0  0  0  0  0  0  0  0  0  0  0
   -1.9029    0.0618    0.0000 H   0  0  0  0  0  0  0  0  0  0  0  0
    1.3913    0.4854    0.0000 H   0  0  0  0  0  0  0  0  0  0  0  0
  1  2  1  0  0  0  0
  2  3  1  0  0  0  0
  3  4  1  0  0  0  0
  4  5  2  0  0  0  0
  4  6  1  0  0  0  0
  6  7  4  0  0  0  0
  6 19  4  0  0  0  0
  7  8  4  0  0  0  0
  8  9  4  0  0  0  0
  9 10  1  0  0  0  0
  9 19  4  0  0  0  0
 10 11  4  0  0  0  0
 10 17  4  0  0  0  0
 11 12  4  0  0  0  0
 12 13  1  0  0  0  0
 12 14  4  0  0  0  0
 14 15  1  0  0  0  0
 14 16  4  0  0  0  0
 16 17  4  0  0  0  0
 17 18  1  0  0  0  0
 19 20  1  0  0  0  0
 20 21  4  0  0  0  0
 20 27  4  0  0  0  0
 21 22  4  0  0  0  0
 22 23  4  0  0  0  0
 23 24  1  0  0  0  0
 23 26  4  0  0  0  0
 24 25  1  0  0  0  0
 26 27  4  0  0  0  0
  2 28  1  0  0  0  0
  2 29  1  0  0  0  0
  7 30  1  0  0  0  0
 11 31  1  0  0  0  0
 25 32  1  0  0  0  0
 25 33  1  0  0  0  0
 25 34  1  0  0  0  0
 27 35  1  0  0  0  0
 22 36  1  0  0  0  0
 18 37  1  0  0  0  0
  1 38  1  0  0  0  0
  1 39  1  0  0  0  0
  1 40  1  0  0  0  0
 15 41  1  0  0  0  0
 16 42  1  0  0  0  0
 21 43  1  0  0  0  0
 26 44  1  0  0  0  0
  3 45  1  0  0  0  0
M  END
> <Molecule ChEMBL ID>
CHEMBL365617

> <Class(50)>
0

> <Class(80)>
0

>  <salt>
false

>  <StandardizerResult>
Tautomerize (ID: Tautomerize)
Neutralize (ID: Neutralize)
Aromatize (ID: Aromatize)
Wedge Clean (ID: Wedge Clean)
Clean 2D (ID: Clean2D)

$$$$
CHEMBL273575
  Mrv2010 08032110442D          

 36 38  0  0  1  0            999 V2000
   -2.2000    0.2587    0.0000 C   0  0  0  0  0  0  0  0  0  0  0  0
   -1.4856   -0.1538    0.0000 N   0  0  0  0  0  0  0  0  0  0  0  0
   -0.7711    0.2587    0.0000 C   0  0  0  0  0  0  0  0  0  0  0  0
   -0.0566   -0.1538    0.0000 C   0  0  0  0  0  0  0  0  0  0  0  0
    0.6579    0.2587    0.0000 C   0  0  0  0  0  0  0  0  0  0  0  0
    0.6579    1.0837    0.0000 N   0  0  0  0  0  0  0  0  0  0  0  0
    1.3723   -0.1538    0.0000 C   0  0  0  0  0  0  0  0  0  0  0  0
    1.3723   -0.9788    0.0000 C   0  0  0  0  0  0  0  0  0  0  0  0
    0.6579   -1.3913    0.0000 C   0  0  0  0  0  0  0  0  0  0  0  0
   -0.0566   -0.9788    0.0000 C   0  0  0  0  0  0  0  0  0  0  0  0
   -0.7711   -1.3913    0.0000 C   0  0  1  0  0  0  0  0  0  0  0  0
   -0.7711   -2.2163    0.0000 C   0  0  0  0  0  0  0  0  0  0  0  0
   -0.0566   -2.6288    0.0000 C   0  0  0  0  0  0  0  0  0  0  0  0
   -0.0566   -3.4538    0.0000 C   0  0  0  0  0  0  0  0  0  0  0  0
   -0.7711   -3.8663    0.0000 C   0  0  0  0  0  0  0  0  0  0  0  0
   -1.4856   -3.4538    0.0000 C   0  0  0  0  0  0  0  0  0  0  0  0
   -1.4856   -2.6288    0.0000 C   0  0  0  0  0  0  0  0  0  0  0  0
   -1.4856   -0.9788    0.0000 C   0  0  0  0  0  0  0  0  0  0  0  0
   -1.7875    0.9732    0.0000 H   0  0  0  0  0  0  0  0  0  0  0  0
   -2.9145    0.6712    0.0000 H   0  0  0  0  0  0  0  0  0  0  0  0
   -2.6125   -0.4558    0.0000 H   0  0  0  0  0  0  0  0  0  0  0  0
   -2.3106   -2.6288    0.0000 H   0  0  0  0  0  0  0  0  0  0  0  0
   -0.4008    0.9960    0.0000 H   0  0  0  0  0  0  0  0  0  0  0  0
   -1.1413    0.9960    0.0000 H   0  0  0  0  0  0  0  0  0  0  0  0
    0.6579   -3.8663    0.0000 H   0  0  0  0  0  0  0  0  0  0  0  0
    2.0868    0.2587    0.0000 H   0  0  0  0  0  0  0  0  0  0  0  0
    0.6579   -2.2163    0.0000 H   0  0  0  0  0  0  0  0  0  0  0  0
   -0.7711   -4.6913    0.0000 H   0  0  0  0  0  0  0  0  0  0  0  0
   -2.2608   -0.6966    0.0000 H   0  0  0  0  0  0  0  0  0  0  0  0
   -2.2608   -1.2610    0.0000 H   0  0  0  0  0  0  0  0  0  0  0  0
    2.0868   -1.3913    0.0000 H   0  0  0  0  0  0  0  0  0  0  0  0
   -1.4856   -1.8038    0.0000 H   0  0  0  0  0  0  0  0  0  0  0  0
   -0.0566   -1.8038    0.0000 H   0  0  0  0  0  0  0  0  0  0  0  0
   -2.2000   -3.8663    0.0000 H   0  0  0  0  0  0  0  0  0  0  0  0
    1.3723    1.4962    0.0000 H   0  0  0  0  0  0  0  0  0  0  0  0
   -0.0566    1.4962    0.0000 H   0  0  0  0  0  0  0  0  0  0  0  0
  1  2  1  0  0  0  0
  2  3  1  0  0  0  0
  2 18  1  0  0  0  0
  3  4  1  0  0  0  0
  4  5  4  0  0  0  0
  4 10  4  0  0  0  0
  5  6  1  0  0  0  0
  5  7  4  0  0  0  0
  7  8  4  0  0  0  0
  8  9  4  0  0  0  0
  9 10  4  0  0  0  0
 11 10  1  0  0  0  0
 11 12  1  0  0  0  0
 11 18  1  0  0  0  0
 12 13  4  0  0  0  0
 12 17  4  0  0  0  0
 13 14  4  0  0  0  0
 14 15  4  0  0  0  0
 15 16  4  0  0  0  0
 16 17  4  0  0  0  0
  1 19  1  0  0  0  0
  1 20  1  0  0  0  0
  1 21  1  0  0  0  0
 17 22  1  0  0  0  0
  3 23  1  0  0  0  0
  3 24  1  0  0  0  0
 14 25  1  0  0  0  0
  7 26  1  0  0  0  0
  9 27  1  0  0  0  0
 15 28  1  0  0  0  0
 18 29  1  0  0  0  0
 18 30  1  0  0  0  0
  8 31  1  0  0  0  0
 11 32  1  6  0  0  0
 13 33  1  0  0  0  0
 16 34  1  0  0  0  0
  6 35  1  0  0  0  0
  6 36  1  0  0  0  0
M  END
> <Molecule ChEMBL ID>
CHEMBL273575

> <Class(50)>
0

> <Class(80)>
0

>  <salt>
false

>  <StandardizerResult>
Tautomerize (ID: Tautomerize)
Transform (ID: Transform NO2 (1))
Aromatize (ID: Aromatize)
Wedge Clean (ID: Wedge Clean)
Clean 2D (ID: Clean2D)

$$$$
CHEMBL94394
  Mrv2010 08032110442D          

 33 33  0  0  0  0            999 V2000
   -2.9595    0.5421    0.0000 C   0  0  0  0  0  0  0  0  0  0  0  0
   -2.2450    0.1296    0.0000 C   0  0  0  0  0  0  0  0  0  0  0  0
   -1.5306    0.5421    0.0000 C   0  0  0  0  0  0  0  0  0  0  0  0
   -0.8161    0.1296    0.0000 C   0  0  0  0  0  0  0  0  0  0  0  0
   -0.1016    0.5421    0.0000 O   0  0  0  0  0  0  0  0  0  0  0  0
    0.6128    0.1296    0.0000 C   0  0  0  0  0  0  0  0  0  0  0  0
    1.3273    0.5421    0.0000 C   0  0  0  0  0  0  0  0  0  0  0  0
    2.0418    0.1296    0.0000 C   0  0  0  0  0  0  0  0  0  0  0  0
    2.0418   -0.6954    0.0000 C   0  0  0  0  0  0  0  0  0  0  0  0
    2.7563   -1.1079    0.0000 C   0  0  0  0  0  0  0  0  0  0  0  0
    3.4707   -0.6954    0.0000 C   0  0  0  0  0  0  0  0  0  0  0  0
    3.4707    0.1296    0.0000 O   0  0  0  0  0  0  0  0  0  0  0  0
    4.1852   -1.1079    0.0000 N   0  0  0  0  0  0  0  0  0  0  0  0
    4.8997   -0.6954    0.0000 O   0  0  0  0  0  0  0  0  0  0  0  0
    1.3273   -1.1079    0.0000 C   0  0  0  0  0  0  0  0  0  0  0  0
    0.6128   -0.6954    0.0000 C   0  0  0  0  0  0  0  0  0  0  0  0
   -1.1603    1.2793    0.0000 H   0  0  0  0  0  0  0  0  0  0  0  0
   -1.9008    1.2793    0.0000 H   0  0  0  0  0  0  0  0  0  0  0  0
    1.3273    1.3671    0.0000 H   0  0  0  0  0  0  0  0  0  0  0  0
    1.3273   -1.9329    0.0000 H   0  0  0  0  0  0  0  0  0  0  0  0
   -0.1016   -1.1079    0.0000 H   0  0  0  0  0  0  0  0  0  0  0  0
   -1.1864   -0.6077    0.0000 H   0  0  0  0  0  0  0  0  0  0  0  0
   -0.4458   -0.6077    0.0000 H   0  0  0  0  0  0  0  0  0  0  0  0
    2.3860   -1.8452    0.0000 H   0  0  0  0  0  0  0  0  0  0  0  0
    3.1265   -1.8452    0.0000 H   0  0  0  0  0  0  0  0  0  0  0  0
   -2.5470    1.2565    0.0000 H   0  0  0  0  0  0  0  0  0  0  0  0
   -3.6740    0.9546    0.0000 H   0  0  0  0  0  0  0  0  0  0  0  0
   -3.3720   -0.1724    0.0000 H   0  0  0  0  0  0  0  0  0  0  0  0
    4.1852   -1.9329    0.0000 H   0  0  0  0  0  0  0  0  0  0  0  0
    5.6141   -1.1079    0.0000 H   0  0  0  0  0  0  0  0  0  0  0  0
   -2.6153   -0.6077    0.0000 H   0  0  0  0  0  0  0  0  0  0  0  0
   -1.8748   -0.6077    0.0000 H   0  0  0  0  0  0  0  0  0  0  0  0
    2.7563    0.5421    0.0000 H   0  0  0  0  0  0  0  0  0  0  0  0
  1  2  1  0  0  0  0
  2  3  1  0  0  0  0
  3  4  1  0  0  0  0
  4  5  1  0  0  0  0
  5  6  1  0  0  0  0
  6  7  4  0  0  0  0
  6 16  4  0  0  0  0
  7  8  4  0  0  0  0
  8  9  4  0  0  0  0
  9 10  1  0  0  0  0
  9 15  4  0  0  0  0
 10 11  1  0  0  0  0
 11 12  2  0  0  0  0
 11 13  1  0  0  0  0
 13 14  1  0  0  0  0
 15 16  4  0  0  0  0
  3 17  1  0  0  0  0
  3 18  1  0  0  0  0
  7 19  1  0  0  0  0
 15 20  1  0  0  0  0
 16 21  1  0  0  0  0
  4 22  1  0  0  0  0
  4 23  1  0  0  0  0
 10 24  1  0  0  0  0
 10 25  1  0  0  0  0
  1 26  1  0  0  0  0
  1 27  1  0  0  0  0
  1 28  1  0  0  0  0
 13 29  1  0  0  0  0
 14 30  1  0  0  0  0
  2 31  1  0  0  0  0
  2 32  1  0  0  0  0
  8 33  1  0  0  0  0
M  END
> <Molecule ChEMBL ID>
CHEMBL94394

> <Class(50)>
0

> <Class(80)>
0

>  <salt>
false

>  <StandardizerResult>
Tautomerize (ID: Tautomerize)
Neutralize (ID: Neutralize)
Aromatize (ID: Aromatize)
Wedge Clean (ID: Wedge Clean)
Clean 2D (ID: Clean2D)

$$$$
CHEMBL139
  Mrv2010 08032110442D          

 30 31  0  0  1  0            999 V2000
   -0.1108    3.4027    0.0000 O   0  0  0  0  0  0  0  0  0  0  0  0
   -0.1108    2.5777    0.0000 C   0  0  0  0  0  0  0  0  0  0  0  0
    0.6037    2.1652    0.0000 O   0  0  0  0  0  0  0  0  0  0  0  0
   -0.8253    2.1652    0.0000 C   0  0  0  0  0  0  0  0  0  0  0  0
   -0.8253    1.3402    0.0000 C   0  0  0  0  0  0  0  0  0  0  0  0
   -1.5397    0.9277    0.0000 C   0  0  0  0  0  0  0  0  0  0  0  0
   -1.5397    0.1027    0.0000 C   0  0  0  0  0  0  0  0  0  0  0  0
   -0.8253   -0.3098    0.0000 C   0  0  0  0  0  0  0  0  0  0  0  0
   -0.1108    0.1027    0.0000 C   0  0  0  0  0  0  0  0  0  0  0  0
   -0.1108    0.9277    0.0000 C   0  0  0  0  0  0  0  0  0  0  0  0
    0.6037    1.3402    0.0000 N   0  0  0  0  0  0  0  0  0  0  0  0
    1.3181    0.9277    0.0000 C   0  0  0  0  0  0  0  0  0  0  0  0
    2.0326    1.3402    0.0000 C   0  0  0  0  0  0  0  0  0  0  0  0
    2.0326    2.1652    0.0000 Cl  0  0  0  0  0  0  0  0  0  0  0  0
    2.7471    0.9277    0.0000 C   0  0  0  0  0  0  0  0  0  0  0  0
    2.7471    0.1027    0.0000 C   0  0  0  0  0  0  0  0  0  0  0  0
    2.0326   -0.3098    0.0000 C   0  0  0  0  0  0  0  0  0  0  0  0
    1.3181    0.1027    0.0000 C   0  0  0  0  0  0  0  0  0  0  0  0
    0.6037   -0.3098    0.0000 Cl  0  0  0  0  0  0  0  0  0  0  0  0
   -1.2786    2.8545    0.0000 H   0  0  0  0  0  0  0  0  0  0  0  0
   -1.6489    2.2132    0.0000 H   0  0  0  0  0  0  0  0  0  0  0  0
   -0.8253   -1.1348    0.0000 H   0  0  0  0  0  0  0  0  0  0  0  0
    3.4616    1.3402    0.0000 H   0  0  0  0  0  0  0  0  0  0  0  0
    2.0326   -1.1348    0.0000 H   0  0  0  0  0  0  0  0  0  0  0  0
    0.6037    0.5152    0.0000 H   0  0  0  0  0  0  0  0  0  0  0  0
   -2.2542   -0.3098    0.0000 H   0  0  0  0  0  0  0  0  0  0  0  0
   -2.2542    1.3402    0.0000 H   0  0  0  0  0  0  0  0  0  0  0  0
   -0.1108    1.7527    0.0000 H   0  0  0  0  0  0  0  0  0  0  0  0
    1.3181    2.5777    0.0000 H   0  0  0  0  0  0  0  0  0  0  0  0
    3.4616   -0.3098    0.0000 H   0  0  0  0  0  0  0  0  0  0  0  0
  1  2  2  0  0  0  0
  2  3  1  0  0  0  0
  2  4  1  0  0  0  0
  4  5  1  0  0  0  0
  5  6  4  0  0  0  0
  5 10  4  0  0  0  0
  6  7  4  0  0  0  0
  7  8  4  0  0  0  0
  8  9  4  0  0  0  0
  9 10  4  0  0  0  0
 10 11  1  0  0  0  0
 11 12  1  0  0  0  0
 12 13  4  0  0  0  0
 12 18  4  0  0  0  0
 13 14  1  0  0  0  0
 13 15  4  0  0  0  0
 15 16  4  0  0  0  0
 16 17  4  0  0  0  0
 17 18  4  0  0  0  0
 18 19  1  0  0  0  0
  4 20  1  0  0  0  0
  4 21  1  0  0  0  0
  8 22  1  0  0  0  0
 15 23  1  0  0  0  0
 17 24  1  0  0  0  0
  9 25  1  0  0  0  0
  7 26  1  0  0  0  0
  6 27  1  0  0  0  0
 11 28  1  0  0  0  0
  3 29  1  0  0  0  0
 16 30  1  0  0  0  0
M  END
> <Molecule ChEMBL ID>
CHEMBL139

> <Class(50)>
0

> <Class(80)>
0

>  <salt>
false

>  <StandardizerResult>
Tautomerize (ID: Tautomerize)
Transform (ID: Transform NO2 (1))
Aromatize (ID: Aromatize)
Wedge Clean (ID: Wedge Clean)
Clean 2D (ID: Clean2D)

$$$$
CHEMBL1405973
  Mrv2010 08032110442D          

 35 35  0  0  0  0            999 V2000
   -1.1651    0.0635    0.0000 C   0  0  0  0  0  0  0  0  0  0  0  0
   -0.4506   -0.3490    0.0000 C   0  0  0  0  0  0  0  0  0  0  0  0
    0.2638    0.0635    0.0000 C   0  0  0  0  0  0  0  0  0  0  0  0
    0.9783   -0.3490    0.0000 C   0  0  0  0  0  0  0  0  0  0  0  0
    1.6928    0.0635    0.0000 C   0  0  0  0  0  0  0  0  0  0  0  0
    2.4072   -0.3490    0.0000 C   0  0  0  0  0  0  0  0  0  0  0  0
    3.1217    0.0635    0.0000 O   0  0  0  0  0  0  0  0  0  0  0  0
    3.8362   -0.3490    0.0000 C   0  0  0  0  0  0  0  0  0  0  0  0
    4.5507    0.0635    0.0000 C   0  0  0  0  0  0  0  0  0  0  0  0
    5.2651   -0.3490    0.0000 C   0  0  0  0  0  0  0  0  0  0  0  0
    5.2651   -1.1740    0.0000 C   0  0  0  0  0  0  0  0  0  0  0  0
    4.5507   -1.5865    0.0000 C   0  0  0  0  0  0  0  0  0  0  0  0
    3.8362   -1.1740    0.0000 C   0  0  0  0  0  0  0  0  0  0  0  0
    3.1217   -1.5865    0.0000 C   0  0  0  0  0  0  0  0  0  0  0  0
    3.1217   -2.4115    0.0000 O   0  0  0  0  0  0  0  0  0  0  0  0
    2.4072   -1.1740    0.0000 N   0  0  0  0  0  0  0  0  0  0  0  0
    5.9796    0.0635    0.0000 H   0  0  0  0  0  0  0  0  0  0  0  0
    1.6928   -0.7615    0.0000 H   0  0  0  0  0  0  0  0  0  0  0  0
    3.1217   -0.7615    0.0000 H   0  0  0  0  0  0  0  0  0  0  0  0
    0.6080   -1.0862    0.0000 H   0  0  0  0  0  0  0  0  0  0  0  0
    1.3486   -1.0862    0.0000 H   0  0  0  0  0  0  0  0  0  0  0  0
   -0.8209   -1.0862    0.0000 H   0  0  0  0  0  0  0  0  0  0  0  0
   -0.0804   -1.0862    0.0000 H   0  0  0  0  0  0  0  0  0  0  0  0
    5.9796   -1.5865    0.0000 H   0  0  0  0  0  0  0  0  0  0  0  0
    2.0630    0.8008    0.0000 H   0  0  0  0  0  0  0  0  0  0  0  0
    1.3225    0.8008    0.0000 H   0  0  0  0  0  0  0  0  0  0  0  0
    1.7753   -1.7043    0.0000 H   0  0  0  0  0  0  0  0  0  0  0  0
    2.2640   -1.9864    0.0000 H   0  0  0  0  0  0  0  0  0  0  0  0
    0.6341    0.8008    0.0000 H   0  0  0  0  0  0  0  0  0  0  0  0
   -0.1064    0.8008    0.0000 H   0  0  0  0  0  0  0  0  0  0  0  0
   -0.7526    0.7780    0.0000 H   0  0  0  0  0  0  0  0  0  0  0  0
   -1.8796    0.4760    0.0000 H   0  0  0  0  0  0  0  0  0  0  0  0
   -1.5776   -0.6509    0.0000 H   0  0  0  0  0  0  0  0  0  0  0  0
    4.5507    0.8885    0.0000 H   0  0  0  0  0  0  0  0  0  0  0  0
    4.5507   -2.4115    0.0000 H   0  0  0  0  0  0  0  0  0  0  0  0
  1  2  1  0  0  0  0
  2  3  1  0  0  0  0
  3  4  1  0  0  0  0
  4  5  1  0  0  0  0
  5  6  1  0  0  0  0
  6  7  1  0  0  0  0
  7  8  1  0  0  0  0
  8  9  4  0  0  0  0
  8 13  4  0  0  0  0
  9 10  4  0  0  0  0
 10 11  4  0  0  0  0
 11 12  4  0  0  0  0
 12 13  4  0  0  0  0
 13 14  1  0  0  0  0
 14 15  2  0  0  0  0
 14 16  1  0  0  0  0
 10 17  1  0  0  0  0
  6 18  1  0  0  0  0
  6 19  1  0  0  0  0
  4 20  1  0  0  0  0
  4 21  1  0  0  0  0
  2 22  1  0  0  0  0
  2 23  1  0  0  0  0
 11 24  1  0  0  0  0
  5 25  1  0  0  0  0
  5 26  1  0  0  0  0
 16 27  1  0  0  0  0
 16 28  1  0  0  0  0
  3 29  1  0  0  0  0
  3 30  1  0  0  0  0
  1 31  1  0  0  0  0
  1 32  1  0  0  0  0
  1 33  1  0  0  0  0
  9 34  1  0  0  0  0
 12 35  1  0  0  0  0
M  END
> <Molecule ChEMBL ID>
CHEMBL1405973

> <Class(50)>
0

> <Class(80)>
0

>  <salt>
false

>  <StandardizerResult>
Tautomerize (ID: Tautomerize)
Neutralize (ID: Neutralize)
Aromatize (ID: Aromatize)
Wedge Clean (ID: Wedge Clean)
Clean 2D (ID: Clean2D)

$$$$
CHEMBL18972
  Mrv2010 08032110442D          

 47 49  0  0  1  0            999 V2000
   -3.1539   -3.3421    0.0000 O   0  0  0  0  0  0  0  0  0  0  0  0
   -2.4395   -3.7546    0.0000 C   0  0  1  0  0  0  0  0  0  0  0  0
   -2.4395   -4.5796    0.0000 C   0  0  0  0  0  0  0  0  0  0  0  0
   -1.7250   -4.9921    0.0000 C   0  0  0  0  0  0  0  0  0  0  0  0
   -1.7250   -5.8171    0.0000 C   0  0  0  0  0  0  0  0  0  0  0  0
   -2.4395   -6.2296    0.0000 C   0  0  0  0  0  0  0  0  0  0  0  0
   -3.1539   -5.8171    0.0000 C   0  0  0  0  0  0  0  0  0  0  0  0
   -3.1539   -4.9921    0.0000 C   0  0  0  0  0  0  0  0  0  0  0  0
   -1.7250   -3.3421    0.0000 C   0  0  0  0  0  0  0  0  0  0  0  0
   -1.7250   -2.5171    0.0000 C   0  0  0  0  0  0  0  0  0  0  0  0
   -1.0105   -2.1046    0.0000 C   0  0  0  0  0  0  0  0  0  0  0  0
   -0.2960   -2.5171    0.0000 N   0  0  0  0  0  0  0  0  0  0  0  0
    0.4184   -2.1046    0.0000 C   0  0  0  0  0  0  0  0  0  0  0  0
    0.4184   -1.2796    0.0000 C   0  0  0  0  0  0  0  0  0  0  0  0
    1.1329   -0.8671    0.0000 C   0  0  0  0  0  0  0  0  0  0  0  0
    1.1329   -0.0421    0.0000 C   0  0  0  0  0  0  0  0  0  0  0  0
    1.8474    0.3704    0.0000 C   0  0  0  0  0  0  0  0  0  0  0  0
    2.5618   -0.0421    0.0000 C   0  0  0  0  0  0  0  0  0  0  0  0
    2.5618   -0.8671    0.0000 C   0  0  0  0  0  0  0  0  0  0  0  0
    1.8474   -1.2796    0.0000 C   0  0  0  0  0  0  0  0  0  0  0  0
   -0.2960   -3.3421    0.0000 C   0  0  0  0  0  0  0  0  0  0  0  0
   -1.0105   -3.7546    0.0000 C   0  0  0  0  0  0  0  0  0  0  0  0
    1.8474   -2.1046    0.0000 H   0  0  0  0  0  0  0  0  0  0  0  0
   -1.0105   -4.5796    0.0000 H   0  0  0  0  0  0  0  0  0  0  0  0
   -2.4395   -7.0546    0.0000 H   0  0  0  0  0  0  0  0  0  0  0  0
   -1.7250   -4.1671    0.0000 H   0  0  0  0  0  0  0  0  0  0  0  0
    0.1573   -4.0314    0.0000 H   0  0  0  0  0  0  0  0  0  0  0  0
    0.5276   -3.3900    0.0000 H   0  0  0  0  0  0  0  0  0  0  0  0
    3.2763   -1.2796    0.0000 H   0  0  0  0  0  0  0  0  0  0  0  0
   -2.1783   -1.8278    0.0000 H   0  0  0  0  0  0  0  0  0  0  0  0
   -2.5486   -2.4691    0.0000 H   0  0  0  0  0  0  0  0  0  0  0  0
   -0.6403   -1.3673    0.0000 H   0  0  0  0  0  0  0  0  0  0  0  0
   -1.3808   -1.3673    0.0000 H   0  0  0  0  0  0  0  0  0  0  0  0
    1.8474    1.1954    0.0000 H   0  0  0  0  0  0  0  0  0  0  0  0
   -3.1539   -4.1671    0.0000 H   0  0  0  0  0  0  0  0  0  0  0  0
    0.8718   -2.7939    0.0000 H   0  0  0  0  0  0  0  0  0  0  0  0
    1.2420   -2.1525    0.0000 H   0  0  0  0  0  0  0  0  0  0  0  0
    0.4184    0.3704    0.0000 H   0  0  0  0  0  0  0  0  0  0  0  0
   -3.9789   -4.9921    0.0000 H   0  0  0  0  0  0  0  0  0  0  0  0
   -1.0105   -2.9296    0.0000 H   0  0  0  0  0  0  0  0  0  0  0  0
   -0.2960   -4.1671    0.0000 H   0  0  0  0  0  0  0  0  0  0  0  0
   -0.0349   -0.5903    0.0000 H   0  0  0  0  0  0  0  0  0  0  0  0
   -0.4052   -1.2316    0.0000 H   0  0  0  0  0  0  0  0  0  0  0  0
   -3.1539   -2.5171    0.0000 H   0  0  0  0  0  0  0  0  0  0  0  0
    3.2763    0.3704    0.0000 H   0  0  0  0  0  0  0  0  0  0  0  0
   -1.0105   -6.2296    0.0000 H   0  0  0  0  0  0  0  0  0  0  0  0
   -3.8684   -6.2296    0.0000 H   0  0  0  0  0  0  0  0  0  0  0  0
  2  1  1  0  0  0  0
  2  3  1  0  0  0  0
  2  9  1  0  0  0  0
  3  4  4  0  0  0  0
  3  8  4  0  0  0  0
  4  5  4  0  0  0  0
  5  6  4  0  0  0  0
  6  7  4  0  0  0  0
  7  8  4  0  0  0  0
  9 10  1  0  0  0  0
  9 22  1  0  0  0  0
 10 11  1  0  0  0  0
 11 12  1  0  0  0  0
 12 13  1  0  0  0  0
 12 21  1  0  0  0  0
 13 14  1  0  0  0  0
 14 15  1  0  0  0  0
 15 16  4  0  0  0  0
 15 20  4  0  0  0  0
 16 17  4  0  0  0  0
 17 18  4  0  0  0  0
 18 19  4  0  0  0  0
 19 20  4  0  0  0  0
 21 22  1  0  0  0  0
 20 23  1  0  0  0  0
  4 24  1  0  0  0  0
  6 25  1  0  0  0  0
  9 26  1  0  0  0  0
 21 27  1  0  0  0  0
 21 28  1  0  0  0  0
 19 29  1  0  0  0  0
 10 30  1  0  0  0  0
 10 31  1  0  0  0  0
 11 32  1  0  0  0  0
 11 33  1  0  0  0  0
 17 34  1  0  0  0  0
  2 35  1  1  0  0  0
 13 36  1  0  0  0  0
 13 37  1  0  0  0  0
 16 38  1  0  0  0  0
  8 39  1  0  0  0  0
 22 40  1  0  0  0  0
 22 41  1  0  0  0  0
 14 42  1  0  0  0  0
 14 43  1  0  0  0  0
  1 44  1  0  0  0  0
 18 45  1  0  0  0  0
  5 46  1  0  0  0  0
  7 47  1  0  0  0  0
M  END
> <Molecule ChEMBL ID>
CHEMBL18972

> <Class(50)>
0

> <Class(80)>
0

>  <salt>
false

>  <StandardizerResult>
Tautomerize (ID: Tautomerize)
Transform (ID: Transform NO2 (1))
Aromatize (ID: Aromatize)
Wedge Clean (ID: Wedge Clean)
Clean 2D (ID: Clean2D)

$$$$
CHEMBL1564
  Mrv2010 08032110442D          

 44 46  0  0  0  0            999 V2000
    0.9148    2.8031    0.0000 C   0  0  0  0  0  0  0  0  0  0  0  0
    0.2003    2.3906    0.0000 N   0  0  0  0  0  0  0  0  0  0  0  0
    0.2003    1.5656    0.0000 C   0  0  0  0  0  0  0  0  0  0  0  0
   -0.5141    1.1531    0.0000 C   0  0  0  0  0  0  0  0  0  0  0  0
   -1.2286    1.5656    0.0000 C   0  0  0  0  0  0  0  0  0  0  0  0
   -1.9431    1.1531    0.0000 O   0  0  0  0  0  0  0  0  0  0  0  0
   -1.9431    0.3281    0.0000 C   0  0  0  0  0  0  0  0  0  0  0  0
   -2.6575   -0.0844    0.0000 C   0  0  0  0  0  0  0  0  0  0  0  0
   -2.6575   -0.9094    0.0000 C   0  0  0  0  0  0  0  0  0  0  0  0
   -3.3720   -1.3219    0.0000 C   0  0  0  0  0  0  0  0  0  0  0  0
   -4.0865   -0.9094    0.0000 C   0  0  0  0  0  0  0  0  0  0  0  0
   -4.0865   -0.0844    0.0000 C   0  0  0  0  0  0  0  0  0  0  0  0
   -3.3720    0.3281    0.0000 C   0  0  0  0  0  0  0  0  0  0  0  0
   -1.2286   -0.0844    0.0000 C   0  0  0  0  0  0  0  0  0  0  0  0
   -0.5141    0.3281    0.0000 C   0  0  0  0  0  0  0  0  0  0  0  0
    0.2003   -0.0844    0.0000 C   0  0  0  0  0  0  0  0  0  0  0  0
    0.2003   -0.9094    0.0000 C   0  0  0  0  0  0  0  0  0  0  0  0
   -0.5141   -1.3219    0.0000 C   0  0  0  0  0  0  0  0  0  0  0  0
   -1.2286   -0.9094    0.0000 C   0  0  0  0  0  0  0  0  0  0  0  0
   -1.2286    2.3906    0.0000 C   0  0  0  0  0  0  0  0  0  0  0  0
   -0.5141    2.8031    0.0000 C   0  0  0  0  0  0  0  0  0  0  0  0
    1.0253   -0.0844    0.0000 H   0  0  0  0  0  0  0  0  0  0  0  0
   -3.7845    1.0425    0.0000 H   0  0  0  0  0  0  0  0  0  0  0  0
   -1.9431   -0.4969    0.0000 H   0  0  0  0  0  0  0  0  0  0  0  0
   -1.2286    0.7406    0.0000 H   0  0  0  0  0  0  0  0  0  0  0  0
   -0.5141    1.9781    0.0000 H   0  0  0  0  0  0  0  0  0  0  0  0
    0.6537    0.8763    0.0000 H   0  0  0  0  0  0  0  0  0  0  0  0
    1.0239    1.5176    0.0000 H   0  0  0  0  0  0  0  0  0  0  0  0
   -1.9431    1.9781    0.0000 H   0  0  0  0  0  0  0  0  0  0  0  0
   -4.8010    0.3281    0.0000 H   0  0  0  0  0  0  0  0  0  0  0  0
   -1.3719    3.2030    0.0000 H   0  0  0  0  0  0  0  0  0  0  0  0
   -1.8606    2.9209    0.0000 H   0  0  0  0  0  0  0  0  0  0  0  0
    0.0995    3.3545    0.0000 H   0  0  0  0  0  0  0  0  0  0  0  0
   -0.4144    3.6220    0.0000 H   0  0  0  0  0  0  0  0  0  0  0  0
   -1.9431   -1.3219    0.0000 H   0  0  0  0  0  0  0  0  0  0  0  0
   -2.6575    0.7406    0.0000 H   0  0  0  0  0  0  0  0  0  0  0  0
   -0.5141   -2.1469    0.0000 H   0  0  0  0  0  0  0  0  0  0  0  0
   -3.3720   -2.1469    0.0000 H   0  0  0  0  0  0  0  0  0  0  0  0
    1.3273    2.0886    0.0000 H   0  0  0  0  0  0  0  0  0  0  0  0
    1.6293    3.2156    0.0000 H   0  0  0  0  0  0  0  0  0  0  0  0
    0.5023    3.5175    0.0000 H   0  0  0  0  0  0  0  0  0  0  0  0
   -4.8010   -1.3219    0.0000 H   0  0  0  0  0  0  0  0  0  0  0  0
    0.9148   -1.3219    0.0000 H   0  0  0  0  0  0  0  0  0  0  0  0
    0.2003    0.7406    0.0000 H   0  0  0  0  0  0  0  0  0  0  0  0
  1  2  1  0  0  0  0
  2  3  1  0  0  0  0
  2 21  1  0  0  0  0
  3  4  1  0  0  0  0
  4  5  1  0  0  0  0
  5  6  1  0  0  0  0
  5 20  1  0  0  0  0
  6  7  1  0  0  0  0
  7  8  1  0  0  0  0
  7 14  1  0  0  0  0
  8  9  4  0  0  0  0
  8 13  4  0  0  0  0
  9 10  4  0  0  0  0
 10 11  4  0  0  0  0
 11 12  4  0  0  0  0
 12 13  4  0  0  0  0
 14 15  4  0  0  0  0
 14 19  4  0  0  0  0
 15 16  4  0  0  0  0
 16 17  4  0  0  0  0
 17 18  4  0  0  0  0
 18 19  4  0  0  0  0
 20 21  1  0  0  0  0
 16 22  1  0  0  0  0
 13 23  1  0  0  0  0
 19 24  1  0  0  0  0
  4 25  1  0  0  0  0
  4 26  1  0  0  0  0
  3 27  1  0  0  0  0
  3 28  1  0  0  0  0
  5 29  1  0  0  0  0
 12 30  1  0  0  0  0
 20 31  1  0  0  0  0
 20 32  1  0  0  0  0
 21 33  1  0  0  0  0
 21 34  1  0  0  0  0
  9 35  1  0  0  0  0
  7 36  1  0  0  0  0
 18 37  1  0  0  0  0
 10 38  1  0  0  0  0
  1 39  1  0  0  0  0
  1 40  1  0  0  0  0
  1 41  1  0  0  0  0
 11 42  1  0  0  0  0
 17 43  1  0  0  0  0
 15 44  1  0  0  0  0
M  END
> <Molecule ChEMBL ID>
CHEMBL1564

> <Class(50)>
0

> <Class(80)>
0

>  <salt>
true

>  <StandardizerResult>
Tautomerize (ID: Tautomerize)
Neutralize (ID: Neutralize)
Aromatize (ID: Aromatize)
Wedge Clean (ID: Wedge Clean)
Clean 2D (ID: Clean2D)

$$$$
CHEMBL173562
  Mrv2010 08032110442D          

 23 23  0  0  0  0            999 V2000
    1.3395   -0.8407    0.0000 O   0  0  0  0  0  0  0  0  0  0  0  0
    1.3395   -0.0157    0.0000 C   0  0  0  0  0  0  0  0  0  0  0  0
    2.0540    0.3968    0.0000 O   0  0  0  0  0  0  0  0  0  0  0  0
    2.7685   -0.0157    0.0000 C   0  0  0  0  0  0  0  0  0  0  0  0
    3.4830    0.3968    0.0000 C   0  0  0  0  0  0  0  0  0  0  0  0
    4.1974   -0.0157    0.0000 O   0  0  0  0  0  0  0  0  0  0  0  0
    0.6251    0.3968    0.0000 C   0  0  0  0  0  0  0  0  0  0  0  0
   -0.0894   -0.0157    0.0000 C   0  0  0  0  0  0  0  0  0  0  0  0
   -0.8039    0.3968    0.0000 C   0  0  0  0  0  0  0  0  0  0  0  0
   -0.8039    1.2218    0.0000 C   0  0  0  0  0  0  0  0  0  0  0  0
   -0.0894    1.6343    0.0000 C   0  0  0  0  0  0  0  0  0  0  0  0
    0.6251    1.2218    0.0000 C   0  0  0  0  0  0  0  0  0  0  0  0
    1.3395    1.6343    0.0000 O   0  0  0  0  0  0  0  0  0  0  0  0
   -1.5183    1.6343    0.0000 H   0  0  0  0  0  0  0  0  0  0  0  0
   -0.0894    2.4593    0.0000 H   0  0  0  0  0  0  0  0  0  0  0  0
    4.1974   -0.8407    0.0000 H   0  0  0  0  0  0  0  0  0  0  0  0
   -0.0894   -0.8407    0.0000 H   0  0  0  0  0  0  0  0  0  0  0  0
   -1.5183   -0.0157    0.0000 H   0  0  0  0  0  0  0  0  0  0  0  0
    3.8532    1.1341    0.0000 H   0  0  0  0  0  0  0  0  0  0  0  0
    3.1127    1.1341    0.0000 H   0  0  0  0  0  0  0  0  0  0  0  0
    2.3982   -0.7529    0.0000 H   0  0  0  0  0  0  0  0  0  0  0  0
    3.1388   -0.7529    0.0000 H   0  0  0  0  0  0  0  0  0  0  0  0
    2.0540    1.2218    0.0000 H   0  0  0  0  0  0  0  0  0  0  0  0
  1  2  2  0  0  0  0
  2  3  1  0  0  0  0
  2  7  1  0  0  0  0
  3  4  1  0  0  0  0
  4  5  1  0  0  0  0
  5  6  1  0  0  0  0
  7  8  4  0  0  0  0
  7 12  4  0  0  0  0
  8  9  4  0  0  0  0
  9 10  4  0  0  0  0
 10 11  4  0  0  0  0
 11 12  4  0  0  0  0
 12 13  1  0  0  0  0
 10 14  1  0  0  0  0
 11 15  1  0  0  0  0
  6 16  1  0  0  0  0
  8 17  1  0  0  0  0
  9 18  1  0  0  0  0
  5 19  1  0  0  0  0
  5 20  1  0  0  0  0
  4 21  1  0  0  0  0
  4 22  1  0  0  0  0
 13 23  1  0  0  0  0
M  END
> <Molecule ChEMBL ID>
CHEMBL173562

> <Class(50)>
0

> <Class(80)>
0

>  <salt>
false

>  <StandardizerResult>
Tautomerize (ID: Tautomerize)
Neutralize (ID: Neutralize)
Aromatize (ID: Aromatize)
Wedge Clean (ID: Wedge Clean)
Clean 2D (ID: Clean2D)

$$$$
CHEMBL1479316
  Mrv2010 08032110442D          

 19 20  0  0  0  0            999 V2000
   -0.0275   -2.8405    0.0000 O   0  0  0  0  0  0  0  0  0  0  0  0
   -0.7420   -2.4280    0.0000 N   0  0  0  0  0  0  0  0  0  0  0  0
   -0.7420   -1.6030    0.0000 C   0  0  0  0  0  0  0  0  0  0  0  0
   -1.4565   -1.1905    0.0000 C   0  0  0  0  0  0  0  0  0  0  0  0
   -1.4565   -0.3655    0.0000 C   0  0  0  0  0  0  0  0  0  0  0  0
   -0.7420    0.0470    0.0000 C   0  0  0  0  0  0  0  0  0  0  0  0
   -0.7420    0.8720    0.0000 O   0  0  0  0  0  0  0  0  0  0  0  0
   -0.0275   -0.3655    0.0000 C   0  0  0  0  0  0  0  0  0  0  0  0
    0.6869    0.0470    0.0000 N   0  0  0  0  0  0  0  0  0  0  0  0
    1.4014   -0.3655    0.0000 C   0  0  0  0  0  0  0  0  0  0  0  0
    1.4014   -1.1905    0.0000 C   0  0  0  0  0  0  0  0  0  0  0  0
    0.6869   -1.6030    0.0000 C   0  0  0  0  0  0  0  0  0  0  0  0
   -0.0275   -1.1905    0.0000 C   0  0  0  0  0  0  0  0  0  0  0  0
   -2.1709    0.0470    0.0000 H   0  0  0  0  0  0  0  0  0  0  0  0
    2.1159   -1.6030    0.0000 H   0  0  0  0  0  0  0  0  0  0  0  0
   -2.1709   -1.6030    0.0000 H   0  0  0  0  0  0  0  0  0  0  0  0
    0.6869   -2.4280    0.0000 H   0  0  0  0  0  0  0  0  0  0  0  0
   -0.0275    1.2845    0.0000 H   0  0  0  0  0  0  0  0  0  0  0  0
    2.1159    0.0470    0.0000 H   0  0  0  0  0  0  0  0  0  0  0  0
  1  2  2  0  0  0  0
  2  3  1  0  0  0  0
  3  4  4  0  0  0  0
  3 13  4  0  0  0  0
  4  5  4  0  0  0  0
  5  6  4  0  0  0  0
  6  7  1  0  0  0  0
  6  8  4  0  0  0  0
  8  9  4  0  0  0  0
  8 13  4  0  0  0  0
  9 10  4  0  0  0  0
 10 11  4  0  0  0  0
 11 12  4  0  0  0  0
 12 13  4  0  0  0  0
  5 14  1  0  0  0  0
 11 15  1  0  0  0  0
  4 16  1  0  0  0  0
 12 17  1  0  0  0  0
  7 18  1  0  0  0  0
 10 19  1  0  0  0  0
M  END
> <Molecule ChEMBL ID>
CHEMBL1479316

> <Class(50)>
0

> <Class(80)>
0

>  <salt>
false

>  <StandardizerResult>
Tautomerize (ID: Tautomerize)
Neutralize (ID: Neutralize)
Aromatize (ID: Aromatize)
Wedge Clean (ID: Wedge Clean)
Clean 2D (ID: Clean2D)

$$$$
CHEMBL266540
  Mrv2010 08032110442D          

 17 18  0  0  0  0            999 V2000
   -0.7920   -2.2869    0.0000 O   0  0  0  0  0  0  0  0  0  0  0  0
   -0.7920   -1.4619    0.0000 C   0  0  0  0  0  0  0  0  0  0  0  0
   -1.5065   -1.0494    0.0000 N   0  0  0  0  0  0  0  0  0  0  0  0
   -1.5065   -0.2244    0.0000 C   0  0  0  0  0  0  0  0  0  0  0  0
   -0.7920    0.1881    0.0000 N   0  0  0  0  0  0  0  0  0  0  0  0
   -0.0776   -0.2244    0.0000 C   0  0  0  0  0  0  0  0  0  0  0  0
    0.6369    0.1881    0.0000 C   0  0  0  0  0  0  0  0  0  0  0  0
    1.3514   -0.2244    0.0000 C   0  0  0  0  0  0  0  0  0  0  0  0
    1.3514   -1.0494    0.0000 C   0  0  0  0  0  0  0  0  0  0  0  0
    0.6369   -1.4619    0.0000 C   0  0  0  0  0  0  0  0  0  0  0  0
   -0.0776   -1.0494    0.0000 C   0  0  0  0  0  0  0  0  0  0  0  0
    0.6369   -2.2869    0.0000 H   0  0  0  0  0  0  0  0  0  0  0  0
    2.0659    0.1881    0.0000 H   0  0  0  0  0  0  0  0  0  0  0  0
    2.0659   -1.4619    0.0000 H   0  0  0  0  0  0  0  0  0  0  0  0
   -0.7920    1.0131    0.0000 H   0  0  0  0  0  0  0  0  0  0  0  0
    0.6369    1.0131    0.0000 H   0  0  0  0  0  0  0  0  0  0  0  0
   -2.2210    0.1881    0.0000 H   0  0  0  0  0  0  0  0  0  0  0  0
  1  2  2  0  0  0  0
  2  3  1  0  0  0  0
  2 11  1  0  0  0  0
  3  4  2  0  0  0  0
  4  5  1  0  0  0  0
  5  6  1  0  0  0  0
  6  7  4  0  0  0  0
  6 11  4  0  0  0  0
  7  8  4  0  0  0  0
  8  9  4  0  0  0  0
  9 10  4  0  0  0  0
 10 11  4  0  0  0  0
 10 12  1  0  0  0  0
  8 13  1  0  0  0  0
  9 14  1  0  0  0  0
  5 15  1  0  0  0  0
  7 16  1  0  0  0  0
  4 17  1  0  0  0  0
M  END
> <Molecule ChEMBL ID>
CHEMBL266540

> <Class(50)>
0

> <Class(80)>
0

>  <salt>
false

>  <StandardizerResult>
Tautomerize (ID: Tautomerize)
Neutralize (ID: Neutralize)
Aromatize (ID: Aromatize)
Wedge Clean (ID: Wedge Clean)
Clean 2D (ID: Clean2D)

$$$$
CHEMBL278390
  Mrv2010 08032110442D          

 19 20  0  0  0  0            999 V2000
   -2.2151   -1.7644    0.0000 O   0  0  0  0  0  0  0  0  0  0  0  0
   -1.8026   -1.0499    0.0000 C   0  0  0  0  0  0  0  0  0  0  0  0
   -2.2151   -0.3354    0.0000 O   0  0  0  0  0  0  0  0  0  0  0  0
   -0.9776   -1.0499    0.0000 C   0  0  0  0  0  0  0  0  0  0  0  0
   -0.4927   -0.3825    0.0000 C   0  0  0  0  0  0  0  0  0  0  0  0
    0.2920   -0.6374    0.0000 C   0  0  0  0  0  0  0  0  0  0  0  0
    1.0064   -0.2249    0.0000 C   0  0  0  0  0  0  0  0  0  0  0  0
    1.7209   -0.6374    0.0000 C   0  0  0  0  0  0  0  0  0  0  0  0
    1.7209   -1.4624    0.0000 C   0  0  0  0  0  0  0  0  0  0  0  0
    1.0064   -1.8749    0.0000 C   0  0  0  0  0  0  0  0  0  0  0  0
    0.2920   -1.4624    0.0000 C   0  0  0  0  0  0  0  0  0  0  0  0
   -0.4927   -1.7173    0.0000 N   0  0  0  0  0  0  0  0  0  0  0  0
   -1.8026    0.3790    0.0000 H   0  0  0  0  0  0  0  0  0  0  0  0
    1.0064   -2.6999    0.0000 H   0  0  0  0  0  0  0  0  0  0  0  0
   -0.7476   -2.5020    0.0000 H   0  0  0  0  0  0  0  0  0  0  0  0
   -0.7476    0.4022    0.0000 H   0  0  0  0  0  0  0  0  0  0  0  0
    1.0064    0.6001    0.0000 H   0  0  0  0  0  0  0  0  0  0  0  0
    2.4354   -0.2249    0.0000 H   0  0  0  0  0  0  0  0  0  0  0  0
    2.4354   -1.8749    0.0000 H   0  0  0  0  0  0  0  0  0  0  0  0
  1  2  2  0  0  0  0
  2  3  1  0  0  0  0
  2  4  1  0  0  0  0
  4  5  4  0  0  0  0
  4 12  4  0  0  0  0
  5  6  4  0  0  0  0
  6  7  4  0  0  0  0
  6 11  4  0  0  0  0
  7  8  4  0  0  0  0
  8  9  4  0  0  0  0
  9 10  4  0  0  0  0
 10 11  4  0  0  0  0
 11 12  4  0  0  0  0
  3 13  1  0  0  0  0
 10 14  1  0  0  0  0
 12 15  1  0  0  0  0
  5 16  1  0  0  0  0
  7 17  1  0  0  0  0
  8 18  1  0  0  0  0
  9 19  1  0  0  0  0
M  END
> <Molecule ChEMBL ID>
CHEMBL278390

> <Class(50)>
0

> <Class(80)>
0

>  <salt>
false

>  <StandardizerResult>
Tautomerize (ID: Tautomerize)
Neutralize (ID: Neutralize)
Aromatize (ID: Aromatize)
Wedge Clean (ID: Wedge Clean)
Clean 2D (ID: Clean2D)

$$$$
CHEMBL108660
  Mrv2010 08032110442D          

 34 36  0  0  0  0            999 V2000
   -1.2709   -1.8303    0.0000 C   0  0  0  0  0  0  0  0  0  0  0  0
   -1.2709   -1.0053    0.0000 C   0  0  0  0  0  0  0  0  0  0  0  0
   -1.9853   -0.5928    0.0000 C   0  0  0  0  0  0  0  0  0  0  0  0
   -1.9853    0.2322    0.0000 C   0  0  0  0  0  0  0  0  0  0  0  0
   -2.6998    0.6447    0.0000 O   0  0  0  0  0  0  0  0  0  0  0  0
   -1.2709    0.6447    0.0000 O   0  0  0  0  0  0  0  0  0  0  0  0
   -0.5564    0.2322    0.0000 C   0  0  0  0  0  0  0  0  0  0  0  0
    0.1581    0.6447    0.0000 C   0  0  0  0  0  0  0  0  0  0  0  0
    0.8726    0.2322    0.0000 C   0  0  0  0  0  0  0  0  0  0  0  0
    1.5870    0.6447    0.0000 O   0  0  0  0  0  0  0  0  0  0  0  0
    1.5870    1.4697    0.0000 C   0  0  0  0  0  0  0  0  0  0  0  0
    2.3015    1.8822    0.0000 C   0  0  0  0  0  0  0  0  0  0  0  0
    2.3015    2.7072    0.0000 C   0  0  0  0  0  0  0  0  0  0  0  0
    3.0160    3.1197    0.0000 C   0  0  0  0  0  0  0  0  0  0  0  0
    3.7304    2.7072    0.0000 C   0  0  0  0  0  0  0  0  0  0  0  0
    3.7304    1.8822    0.0000 C   0  0  0  0  0  0  0  0  0  0  0  0
    3.0160    1.4697    0.0000 C   0  0  0  0  0  0  0  0  0  0  0  0
    0.8726   -0.5928    0.0000 C   0  0  0  0  0  0  0  0  0  0  0  0
    0.1581   -1.0053    0.0000 C   0  0  0  0  0  0  0  0  0  0  0  0
   -0.5564   -0.5928    0.0000 C   0  0  0  0  0  0  0  0  0  0  0  0
    3.0160    3.9447    0.0000 H   0  0  0  0  0  0  0  0  0  0  0  0
   -2.0959   -1.8303    0.0000 H   0  0  0  0  0  0  0  0  0  0  0  0
   -1.2709   -2.6553    0.0000 H   0  0  0  0  0  0  0  0  0  0  0  0
   -0.4459   -1.8303    0.0000 H   0  0  0  0  0  0  0  0  0  0  0  0
    1.5870   -1.0053    0.0000 H   0  0  0  0  0  0  0  0  0  0  0  0
    0.1581    1.4697    0.0000 H   0  0  0  0  0  0  0  0  0  0  0  0
    4.4449    1.4697    0.0000 H   0  0  0  0  0  0  0  0  0  0  0  0
    3.0160    0.6447    0.0000 H   0  0  0  0  0  0  0  0  0  0  0  0
    1.1337    2.1589    0.0000 H   0  0  0  0  0  0  0  0  0  0  0  0
    0.7634    1.5176    0.0000 H   0  0  0  0  0  0  0  0  0  0  0  0
    1.5870    3.1197    0.0000 H   0  0  0  0  0  0  0  0  0  0  0  0
    4.4449    3.1197    0.0000 H   0  0  0  0  0  0  0  0  0  0  0  0
    0.1581   -1.8303    0.0000 H   0  0  0  0  0  0  0  0  0  0  0  0
   -2.6998   -1.0053    0.0000 H   0  0  0  0  0  0  0  0  0  0  0  0
  1  2  1  0  0  0  0
  2  3  2  0  0  0  0
  2 20  1  0  0  0  0
  3  4  1  0  0  0  0
  4  5  2  0  0  0  0
  4  6  1  0  0  0  0
  6  7  1  0  0  0  0
  7  8  4  0  0  0  0
  7 20  4  0  0  0  0
  8  9  4  0  0  0  0
  9 10  1  0  0  0  0
  9 18  4  0  0  0  0
 10 11  1  0  0  0  0
 11 12  1  0  0  0  0
 12 13  4  0  0  0  0
 12 17  4  0  0  0  0
 13 14  4  0  0  0  0
 14 15  4  0  0  0  0
 15 16  4  0  0  0  0
 16 17  4  0  0  0  0
 18 19  4  0  0  0  0
 19 20  4  0  0  0  0
 14 21  1  0  0  0  0
  1 22  1  0  0  0  0
  1 23  1  0  0  0  0
  1 24  1  0  0  0  0
 18 25  1  0  0  0  0
  8 26  1  0  0  0  0
 16 27  1  0  0  0  0
 17 28  1  0  0  0  0
 11 29  1  0  0  0  0
 11 30  1  0  0  0  0
 13 31  1  0  0  0  0
 15 32  1  0  0  0  0
 19 33  1  0  0  0  0
  3 34  1  0  0  0  0
M  END
> <Molecule ChEMBL ID>
CHEMBL108660

> <Class(50)>
0

> <Class(80)>
0

>  <salt>
false

>  <StandardizerResult>
Tautomerize (ID: Tautomerize)
Neutralize (ID: Neutralize)
Aromatize (ID: Aromatize)
Wedge Clean (ID: Wedge Clean)
Clean 2D (ID: Clean2D)

$$$$
CHEMBL140220
  Mrv2010 08032110442D          

 32 34  0  0  0  0            999 V2000
    2.5975    0.9912    0.0000 C   0  0  0  0  0  0  0  0  0  0  0  0
    1.8830    1.4037    0.0000 O   0  0  0  0  0  0  0  0  0  0  0  0
    1.1686    0.9912    0.0000 C   0  0  0  0  0  0  0  0  0  0  0  0
    1.1686    0.1662    0.0000 C   0  0  0  0  0  0  0  0  0  0  0  0
    0.4541   -0.2463    0.0000 C   0  0  0  0  0  0  0  0  0  0  0  0
   -0.2604    0.1662    0.0000 C   0  0  0  0  0  0  0  0  0  0  0  0
   -1.0450   -0.0887    0.0000 N   0  0  0  0  0  0  0  0  0  0  0  0
   -1.5299    0.5787    0.0000 C   0  0  0  0  0  0  0  0  0  0  0  0
   -2.3549    0.5787    0.0000 C   0  0  0  0  0  0  0  0  0  0  0  0
   -2.7674   -0.1358    0.0000 O   0  0  0  0  0  0  0  0  0  0  0  0
   -2.7674    1.2932    0.0000 C   0  0  0  0  0  0  0  0  0  0  0  0
   -3.5924    1.2932    0.0000 C   0  0  0  0  0  0  0  0  0  0  0  0
   -4.0049    2.0076    0.0000 C   0  0  0  0  0  0  0  0  0  0  0  0
   -3.5924    2.7221    0.0000 C   0  0  0  0  0  0  0  0  0  0  0  0
   -2.7674    2.7221    0.0000 C   0  0  0  0  0  0  0  0  0  0  0  0
   -2.3549    2.0076    0.0000 C   0  0  0  0  0  0  0  0  0  0  0  0
   -1.0450    1.2461    0.0000 C   0  0  0  0  0  0  0  0  0  0  0  0
   -0.2604    0.9912    0.0000 C   0  0  0  0  0  0  0  0  0  0  0  0
    0.4541    1.4037    0.0000 C   0  0  0  0  0  0  0  0  0  0  0  0
   -1.5299    2.0076    0.0000 H   0  0  0  0  0  0  0  0  0  0  0  0
   -2.3549    3.4366    0.0000 H   0  0  0  0  0  0  0  0  0  0  0  0
   -0.5399    1.8984    0.0000 H   0  0  0  0  0  0  0  0  0  0  0  0
    1.8830   -0.2463    0.0000 H   0  0  0  0  0  0  0  0  0  0  0  0
   -4.0049    0.5787    0.0000 H   0  0  0  0  0  0  0  0  0  0  0  0
    0.4541    2.2287    0.0000 H   0  0  0  0  0  0  0  0  0  0  0  0
   -1.2999   -0.8734    0.0000 H   0  0  0  0  0  0  0  0  0  0  0  0
   -4.0049    3.4366    0.0000 H   0  0  0  0  0  0  0  0  0  0  0  0
    2.1850    0.2767    0.0000 H   0  0  0  0  0  0  0  0  0  0  0  0
    3.3120    0.5787    0.0000 H   0  0  0  0  0  0  0  0  0  0  0  0
    3.0100    1.7057    0.0000 H   0  0  0  0  0  0  0  0  0  0  0  0
    0.4541   -1.0713    0.0000 H   0  0  0  0  0  0  0  0  0  0  0  0
   -4.8299    2.0076    0.0000 H   0  0  0  0  0  0  0  0  0  0  0  0
  1  2  1  0  0  0  0
  2  3  1  0  0  0  0
  3  4  4  0  0  0  0
  3 19  4  0  0  0  0
  4  5  4  0  0  0  0
  5  6  4  0  0  0  0
  6  7  4  0  0  0  0
  6 18  4  0  0  0  0
  7  8  4  0  0  0  0
  8  9  1  0  0  0  0
  8 17  4  0  0  0  0
  9 10  2  0  0  0  0
  9 11  1  0  0  0  0
 11 12  4  0  0  0  0
 11 16  4  0  0  0  0
 12 13  4  0  0  0  0
 13 14  4  0  0  0  0
 14 15  4  0  0  0  0
 15 16  4  0  0  0  0
 17 18  4  0  0  0  0
 18 19  4  0  0  0  0
 16 20  1  0  0  0  0
 15 21  1  0  0  0  0
 17 22  1  0  0  0  0
  4 23  1  0  0  0  0
 12 24  1  0  0  0  0
 19 25  1  0  0  0  0
  7 26  1  0  0  0  0
 14 27  1  0  0  0  0
  1 28  1  0  0  0  0
  1 29  1  0  0  0  0
  1 30  1  0  0  0  0
  5 31  1  0  0  0  0
 13 32  1  0  0  0  0
M  END
> <Molecule ChEMBL ID>
CHEMBL140220

> <Class(50)>
0

> <Class(80)>
0

>  <salt>
false

>  <StandardizerResult>
Tautomerize (ID: Tautomerize)
Neutralize (ID: Neutralize)
Aromatize (ID: Aromatize)
Wedge Clean (ID: Wedge Clean)
Clean 2D (ID: Clean2D)

$$$$
CHEMBL1394514
  Mrv2010 08032110442D          

 36 38  0  0  0  0            999 V2000
   -5.7902   -2.5003    0.0000 C   0  0  0  0  0  0  0  0  0  0  0  0
   -5.0757   -2.9128    0.0000 C   0  0  0  0  0  0  0  0  0  0  0  0
   -4.3613   -2.5003    0.0000 C   0  0  0  0  0  0  0  0  0  0  0  0
   -3.6468   -2.9128    0.0000 C   0  0  0  0  0  0  0  0  0  0  0  0
   -2.9323   -2.5003    0.0000 O   0  0  0  0  0  0  0  0  0  0  0  0
   -2.2179   -2.9128    0.0000 C   0  0  0  0  0  0  0  0  0  0  0  0
   -2.2179   -3.7378    0.0000 O   0  0  0  0  0  0  0  0  0  0  0  0
   -1.5034   -2.5003    0.0000 C   0  0  0  0  0  0  0  0  0  0  0  0
   -0.7889   -2.9128    0.0000 C   0  0  0  0  0  0  0  0  0  0  0  0
   -0.0745   -2.5003    0.0000 C   0  0  0  0  0  0  0  0  0  0  0  0
   -0.0745   -1.6753    0.0000 C   0  0  0  0  0  0  0  0  0  0  0  0
   -0.7889   -1.2628    0.0000 C   0  0  0  0  0  0  0  0  0  0  0  0
   -1.5034   -1.6753    0.0000 N   0  0  0  0  0  0  0  0  0  0  0  0
    0.7102   -1.4204    0.0000 N   0  0  0  0  0  0  0  0  0  0  0  0
    1.1951   -2.0878    0.0000 C   0  0  0  0  0  0  0  0  0  0  0  0
    2.0156   -2.1741    0.0000 C   0  0  0  0  0  0  0  0  0  0  0  0
    2.3511   -2.9278    0.0000 C   0  0  0  0  0  0  0  0  0  0  0  0
    1.8662   -3.5952    0.0000 C   0  0  0  0  0  0  0  0  0  0  0  0
    1.0457   -3.5090    0.0000 C   0  0  0  0  0  0  0  0  0  0  0  0
    0.7102   -2.7553    0.0000 C   0  0  0  0  0  0  0  0  0  0  0  0
   -5.3777   -1.7859    0.0000 H   0  0  0  0  0  0  0  0  0  0  0  0
   -6.5047   -2.0878    0.0000 H   0  0  0  0  0  0  0  0  0  0  0  0
   -6.2027   -3.2148    0.0000 H   0  0  0  0  0  0  0  0  0  0  0  0
   -5.4460   -3.6501    0.0000 H   0  0  0  0  0  0  0  0  0  0  0  0
   -4.7055   -3.6501    0.0000 H   0  0  0  0  0  0  0  0  0  0  0  0
    0.9651   -0.6358    0.0000 H   0  0  0  0  0  0  0  0  0  0  0  0
    2.5005   -1.5066    0.0000 H   0  0  0  0  0  0  0  0  0  0  0  0
    2.2018   -4.3489    0.0000 H   0  0  0  0  0  0  0  0  0  0  0  0
   -0.7889   -0.4378    0.0000 H   0  0  0  0  0  0  0  0  0  0  0  0
    3.1716   -3.0140    0.0000 H   0  0  0  0  0  0  0  0  0  0  0  0
    0.5608   -4.1764    0.0000 H   0  0  0  0  0  0  0  0  0  0  0  0
   -3.9910   -1.7631    0.0000 H   0  0  0  0  0  0  0  0  0  0  0  0
   -4.7315   -1.7631    0.0000 H   0  0  0  0  0  0  0  0  0  0  0  0
   -4.0171   -3.6501    0.0000 H   0  0  0  0  0  0  0  0  0  0  0  0
   -3.2765   -3.6501    0.0000 H   0  0  0  0  0  0  0  0  0  0  0  0
   -0.7889   -3.7378    0.0000 H   0  0  0  0  0  0  0  0  0  0  0  0
  1  2  1  0  0  0  0
  2  3  1  0  0  0  0
  3  4  1  0  0  0  0
  4  5  1  0  0  0  0
  5  6  1  0  0  0  0
  6  7  2  0  0  0  0
  6  8  1  0  0  0  0
  8  9  4  0  0  0  0
  8 13  4  0  0  0  0
  9 10  4  0  0  0  0
 10 11  4  0  0  0  0
 10 20  4  0  0  0  0
 11 12  4  0  0  0  0
 11 14  4  0  0  0  0
 12 13  4  0  0  0  0
 14 15  4  0  0  0  0
 15 16  4  0  0  0  0
 15 20  4  0  0  0  0
 16 17  4  0  0  0  0
 17 18  4  0  0  0  0
 18 19  4  0  0  0  0
 19 20  4  0  0  0  0
  1 21  1  0  0  0  0
  1 22  1  0  0  0  0
  1 23  1  0  0  0  0
  2 24  1  0  0  0  0
  2 25  1  0  0  0  0
 14 26  1  0  0  0  0
 16 27  1  0  0  0  0
 18 28  1  0  0  0  0
 12 29  1  0  0  0  0
 17 30  1  0  0  0  0
 19 31  1  0  0  0  0
  3 32  1  0  0  0  0
  3 33  1  0  0  0  0
  4 34  1  0  0  0  0
  4 35  1  0  0  0  0
  9 36  1  0  0  0  0
M  END
> <Molecule ChEMBL ID>
CHEMBL1394514

> <Class(50)>
0

> <Class(80)>
0

>  <salt>
false

>  <StandardizerResult>
Tautomerize (ID: Tautomerize)
Neutralize (ID: Neutralize)
Aromatize (ID: Aromatize)
Wedge Clean (ID: Wedge Clean)
Clean 2D (ID: Clean2D)

$$$$
CHEMBL1923233
  Mrv2010 08032110442D          

 42 43  0  0  1  0            999 V2000
   -1.2594   -3.8865    0.0000 C   0  0  0  0  0  0  0  0  0  0  0  0
   -0.5450   -3.4740    0.0000 C   0  0  0  0  0  0  0  0  0  0  0  0
   -0.5450   -2.6490    0.0000 C   0  0  0  0  0  0  0  0  0  0  0  0
    0.1695   -2.2365    0.0000 C   0  0  1  0  0  0  0  0  0  0  0  0
    0.8840   -2.6490    0.0000 N   0  0  0  0  0  0  0  0  0  0  0  0
    0.8840   -3.4740    0.0000 C   0  0  0  0  0  0  0  0  0  0  0  0
    0.1695   -3.8865    0.0000 O   0  0  0  0  0  0  0  0  0  0  0  0
    1.5984   -3.8865    0.0000 C   0  0  0  0  0  0  0  0  0  0  0  0
    1.5984   -4.7115    0.0000 C   0  0  0  0  0  0  0  0  0  0  0  0
    2.3129   -5.1240    0.0000 C   0  0  0  0  0  0  0  0  0  0  0  0
    3.0274   -4.7115    0.0000 C   0  0  0  0  0  0  0  0  0  0  0  0
    3.7419   -5.1240    0.0000 C   0  0  0  0  0  0  0  0  0  0  0  0
    3.7419   -5.9490    0.0000 C   0  0  0  0  0  0  0  0  0  0  0  0
    3.0274   -6.3615    0.0000 C   0  0  0  0  0  0  0  0  0  0  0  0
    3.0274   -7.1865    0.0000 Br  0  0  0  0  0  0  0  0  0  0  0  0
    2.3129   -5.9490    0.0000 N   0  0  0  0  0  0  0  0  0  0  0  0
    2.3129   -3.4740    0.0000 C   0  0  0  0  0  0  0  0  0  0  0  0
    3.0274   -3.0615    0.0000 N   0  0  0  0  0  0  0  0  0  0  0  0
    0.1695   -1.4115    0.0000 C   0  0  0  0  0  0  0  0  0  0  0  0
   -0.5450   -0.9990    0.0000 C   0  0  0  0  0  0  0  0  0  0  0  0
   -0.5450   -0.1740    0.0000 C   0  0  0  0  0  0  0  0  0  0  0  0
    0.1695    0.2385    0.0000 C   0  0  0  0  0  0  0  0  0  0  0  0
    0.8840   -0.1740    0.0000 C   0  0  0  0  0  0  0  0  0  0  0  0
    0.8840   -0.9990    0.0000 C   0  0  0  0  0  0  0  0  0  0  0  0
    1.5984   -1.4115    0.0000 H   0  0  0  0  0  0  0  0  0  0  0  0
    4.4563   -6.3615    0.0000 H   0  0  0  0  0  0  0  0  0  0  0  0
   -1.6719   -3.1721    0.0000 H   0  0  0  0  0  0  0  0  0  0  0  0
   -1.9739   -4.2990    0.0000 H   0  0  0  0  0  0  0  0  0  0  0  0
   -0.8469   -4.6010    0.0000 H   0  0  0  0  0  0  0  0  0  0  0  0
    1.5984   -2.2365    0.0000 H   0  0  0  0  0  0  0  0  0  0  0  0
    3.0274   -3.8865    0.0000 H   0  0  0  0  0  0  0  0  0  0  0  0
    0.1695    1.0635    0.0000 H   0  0  0  0  0  0  0  0  0  0  0  0
   -0.9983   -1.9598    0.0000 H   0  0  0  0  0  0  0  0  0  0  0  0
   -1.3686   -2.6011    0.0000 H   0  0  0  0  0  0  0  0  0  0  0  0
   -1.2594    0.2385    0.0000 H   0  0  0  0  0  0  0  0  0  0  0  0
   -1.3700   -0.9990    0.0000 H   0  0  0  0  0  0  0  0  0  0  0  0
    1.5984    0.2385    0.0000 H   0  0  0  0  0  0  0  0  0  0  0  0
    4.4563   -4.7115    0.0000 H   0  0  0  0  0  0  0  0  0  0  0  0
   -0.5450   -1.8240    0.0000 H   0  0  0  0  0  0  0  0  0  0  0  0
    0.8840   -5.1240    0.0000 H   0  0  0  0  0  0  0  0  0  0  0  0
   -0.5450   -4.2990    0.0000 H   0  0  0  0  0  0  0  0  0  0  0  0
    0.1695   -3.0615    0.0000 H   0  0  0  0  0  0  0  0  0  0  0  0
  1  2  1  0  0  0  0
  2  3  1  0  0  0  0
  4  3  1  0  0  0  0
  4  5  1  0  0  0  0
  4 19  1  0  0  0  0
  5  6  1  0  0  0  0
  6  7  2  0  0  0  0
  6  8  1  0  0  0  0
  8  9  2  0  0  0  0
  8 17  1  0  0  0  0
  9 10  1  0  0  0  0
 10 11  4  0  0  0  0
 10 16  4  0  0  0  0
 11 12  4  0  0  0  0
 12 13  4  0  0  0  0
 13 14  4  0  0  0  0
 14 15  1  0  0  0  0
 14 16  4  0  0  0  0
 17 18  3  0  0  0  0
 19 20  4  0  0  0  0
 19 24  4  0  0  0  0
 20 21  4  0  0  0  0
 21 22  4  0  0  0  0
 22 23  4  0  0  0  0
 23 24  4  0  0  0  0
 24 25  1  0  0  0  0
 13 26  1  0  0  0  0
  1 27  1  0  0  0  0
  1 28  1  0  0  0  0
  1 29  1  0  0  0  0
  5 30  1  0  0  0  0
 11 31  1  0  0  0  0
 22 32  1  0  0  0  0
  3 33  1  0  0  0  0
  3 34  1  0  0  0  0
 21 35  1  0  0  0  0
 20 36  1  0  0  0  0
 23 37  1  0  0  0  0
 12 38  1  0  0  0  0
  4 39  1  1  0  0  0
  9 40  1  0  0  0  0
  2 41  1  0  0  0  0
  2 42  1  0  0  0  0
M  END
> <Molecule ChEMBL ID>
CHEMBL1923233

> <Class(50)>
0

> <Class(80)>
0

>  <salt>
false

>  <StandardizerResult>
Tautomerize (ID: Tautomerize)
Transform (ID: Transform NO2 (1))
Aromatize (ID: Aromatize)
Wedge Clean (ID: Wedge Clean)
Clean 2D (ID: Clean2D)

$$$$
CHEMBL1515808
  Mrv2010 08032110442D          

 43 45  0  0  1  0            999 V2000
   -1.3608   -4.2764    0.0000 O   0  0  0  0  0  0  0  0  0  0  0  0
   -1.3608   -3.4514    0.0000 C   0  0  0  0  0  0  0  0  0  0  0  0
   -2.0753   -3.0389    0.0000 C   0  0  0  0  0  0  0  0  0  0  0  0
   -2.7898   -3.4514    0.0000 C   0  0  0  0  0  0  0  0  0  0  0  0
   -3.5042   -3.0389    0.0000 C   0  0  0  0  0  0  0  0  0  0  0  0
   -3.5042   -2.2139    0.0000 C   0  0  0  0  0  0  0  0  0  0  0  0
   -2.7898   -1.8014    0.0000 C   0  0  0  0  0  0  0  0  0  0  0  0
   -2.0753   -2.2139    0.0000 C   0  0  0  0  0  0  0  0  0  0  0  0
   -1.3608   -1.8014    0.0000 C   0  0  0  0  0  0  0  0  0  0  0  0
   -0.6463   -2.2139    0.0000 C   0  0  0  0  0  0  0  0  0  0  0  0
   -0.6463   -3.0389    0.0000 C   0  0  1  0  0  0  0  0  0  0  0  0
    0.0681   -3.4514    0.0000 C   0  0  0  0  0  0  0  0  0  0  0  0
    0.7826   -3.0389    0.0000 N   0  0  0  0  0  0  0  0  0  0  0  0
    1.4971   -3.4514    0.0000 C   0  0  0  0  0  0  0  0  0  0  0  0
    2.2115   -3.0389    0.0000 C   0  0  0  0  0  0  0  0  0  0  0  0
    2.9260   -3.4514    0.0000 C   0  0  0  0  0  0  0  0  0  0  0  0
    3.6405   -3.0389    0.0000 C   0  0  0  0  0  0  0  0  0  0  0  0
    4.3550   -3.4514    0.0000 C   0  0  0  0  0  0  0  0  0  0  0  0
    4.3550   -4.2764    0.0000 C   0  0  0  0  0  0  0  0  0  0  0  0
    5.0694   -4.6889    0.0000 O   0  0  0  0  0  0  0  0  0  0  0  0
    3.6405   -4.6889    0.0000 C   0  0  0  0  0  0  0  0  0  0  0  0
    2.9260   -4.2764    0.0000 C   0  0  0  0  0  0  0  0  0  0  0  0
   -2.7898   -0.9764    0.0000 H   0  0  0  0  0  0  0  0  0  0  0  0
   -0.9905   -1.0642    0.0000 H   0  0  0  0  0  0  0  0  0  0  0  0
   -1.7311   -1.0642    0.0000 H   0  0  0  0  0  0  0  0  0  0  0  0
    1.5320   -4.2757    0.0000 H   0  0  0  0  0  0  0  0  0  0  0  0
    2.2201   -3.8487    0.0000 H   0  0  0  0  0  0  0  0  0  0  0  0
    3.6405   -5.5139    0.0000 H   0  0  0  0  0  0  0  0  0  0  0  0
    5.0694   -5.5139    0.0000 H   0  0  0  0  0  0  0  0  0  0  0  0
    5.0694   -3.0389    0.0000 H   0  0  0  0  0  0  0  0  0  0  0  0
   -4.2187   -3.4514    0.0000 H   0  0  0  0  0  0  0  0  0  0  0  0
    0.1773   -2.1660    0.0000 H   0  0  0  0  0  0  0  0  0  0  0  0
   -0.1930   -1.5247    0.0000 H   0  0  0  0  0  0  0  0  0  0  0  0
   -4.2187   -1.8014    0.0000 H   0  0  0  0  0  0  0  0  0  0  0  0
    0.7826   -2.2139    0.0000 H   0  0  0  0  0  0  0  0  0  0  0  0
   -0.6463   -3.8639    0.0000 H   0  0  0  0  0  0  0  0  0  0  0  0
    0.2114   -4.2639    0.0000 H   0  0  0  0  0  0  0  0  0  0  0  0
    0.7001   -3.9817    0.0000 H   0  0  0  0  0  0  0  0  0  0  0  0
    2.5818   -2.3017    0.0000 H   0  0  0  0  0  0  0  0  0  0  0  0
    1.8413   -2.3017    0.0000 H   0  0  0  0  0  0  0  0  0  0  0  0
   -2.7898   -4.2764    0.0000 H   0  0  0  0  0  0  0  0  0  0  0  0
    3.6405   -2.2139    0.0000 H   0  0  0  0  0  0  0  0  0  0  0  0
    2.5060   -4.9865    0.0000 H   0  0  0  0  0  0  0  0  0  0  0  0
  1  2  2  0  0  0  0
  2  3  1  0  0  0  0
 11  2  1  0  0  0  0
  3  4  4  0  0  0  0
  3  8  4  0  0  0  0
  4  5  4  0  0  0  0
  5  6  4  0  0  0  0
  6  7  4  0  0  0  0
  7  8  4  0  0  0  0
  8  9  1  0  0  0  0
  9 10  1  0  0  0  0
 11 10  1  0  0  0  0
 11 12  1  0  0  0  0
 12 13  1  0  0  0  0
 13 14  1  0  0  0  0
 14 15  1  0  0  0  0
 15 16  1  0  0  0  0
 16 17  4  0  0  0  0
 16 22  4  0  0  0  0
 17 18  4  0  0  0  0
 18 19  4  0  0  0  0
 19 20  1  0  0  0  0
 19 21  4  0  0  0  0
 21 22  4  0  0  0  0
  7 23  1  0  0  0  0
  9 24  1  0  0  0  0
  9 25  1  0  0  0  0
 14 26  1  0  0  0  0
 14 27  1  0  0  0  0
 21 28  1  0  0  0  0
 20 29  1  0  0  0  0
 18 30  1  0  0  0  0
  5 31  1  0  0  0  0
 10 32  1  0  0  0  0
 10 33  1  0  0  0  0
  6 34  1  0  0  0  0
 13 35  1  0  0  0  0
 11 36  1  6  0  0  0
 12 37  1  0  0  0  0
 12 38  1  0  0  0  0
 15 39  1  0  0  0  0
 15 40  1  0  0  0  0
  4 41  1  0  0  0  0
 17 42  1  0  0  0  0
 22 43  1  0  0  0  0
M  END
> <Molecule ChEMBL ID>
CHEMBL1515808

> <Class(50)>
0

> <Class(80)>
0

>  <salt>
false

>  <StandardizerResult>
Tautomerize (ID: Tautomerize)
Transform (ID: Transform NO2 (1))
Aromatize (ID: Aromatize)
Wedge Clean (ID: Wedge Clean)
Clean 2D (ID: Clean2D)

$$$$
CHEMBL406861
  Mrv2010 08032110442D          

 33 34  0  0  0  0            999 V2000
   -1.0793    4.1916    0.0000 C   0  0  0  0  0  0  0  0  0  0  0  0
   -0.3648    3.7791    0.0000 O   0  0  0  0  0  0  0  0  0  0  0  0
   -0.3648    2.9541    0.0000 C   0  0  0  0  0  0  0  0  0  0  0  0
    0.3497    2.5416    0.0000 C   0  0  0  0  0  0  0  0  0  0  0  0
    0.3497    1.7166    0.0000 C   0  0  0  0  0  0  0  0  0  0  0  0
   -0.3648    1.3041    0.0000 C   0  0  0  0  0  0  0  0  0  0  0  0
   -0.3648    0.4791    0.0000 C   0  0  0  0  0  0  0  0  0  0  0  0
    0.3497    0.0666    0.0000 O   0  0  0  0  0  0  0  0  0  0  0  0
   -1.0793    0.0666    0.0000 C   0  0  0  0  0  0  0  0  0  0  0  0
   -1.0793   -0.7584    0.0000 C   0  0  0  0  0  0  0  0  0  0  0  0
   -1.7937   -1.1709    0.0000 C   0  0  0  0  0  0  0  0  0  0  0  0
   -1.7937   -1.9959    0.0000 C   0  0  0  0  0  0  0  0  0  0  0  0
   -2.5082   -2.4084    0.0000 C   0  0  0  0  0  0  0  0  0  0  0  0
   -3.2227   -1.9959    0.0000 C   0  0  0  0  0  0  0  0  0  0  0  0
   -3.9371   -2.4084    0.0000 Cl  0  0  0  0  0  0  0  0  0  0  0  0
   -3.2227   -1.1709    0.0000 C   0  0  0  0  0  0  0  0  0  0  0  0
   -2.5082   -0.7584    0.0000 C   0  0  0  0  0  0  0  0  0  0  0  0
   -1.0793    1.7166    0.0000 C   0  0  0  0  0  0  0  0  0  0  0  0
   -1.7937    1.3041    0.0000 O   0  0  0  0  0  0  0  0  0  0  0  0
   -1.0793    2.5416    0.0000 C   0  0  0  0  0  0  0  0  0  0  0  0
   -2.5082   -3.2334    0.0000 H   0  0  0  0  0  0  0  0  0  0  0  0
   -2.5082    0.0666    0.0000 H   0  0  0  0  0  0  0  0  0  0  0  0
    1.0642    1.3041    0.0000 H   0  0  0  0  0  0  0  0  0  0  0  0
   -1.7937    0.4791    0.0000 H   0  0  0  0  0  0  0  0  0  0  0  0
   -2.5082    1.7166    0.0000 H   0  0  0  0  0  0  0  0  0  0  0  0
   -1.7937    2.9541    0.0000 H   0  0  0  0  0  0  0  0  0  0  0  0
   -0.6668    4.9061    0.0000 H   0  0  0  0  0  0  0  0  0  0  0  0
   -1.7937    4.6041    0.0000 H   0  0  0  0  0  0  0  0  0  0  0  0
   -1.4918    3.4771    0.0000 H   0  0  0  0  0  0  0  0  0  0  0  0
   -3.9371   -0.7584    0.0000 H   0  0  0  0  0  0  0  0  0  0  0  0
   -0.3648   -1.1709    0.0000 H   0  0  0  0  0  0  0  0  0  0  0  0
    1.0642    2.9541    0.0000 H   0  0  0  0  0  0  0  0  0  0  0  0
   -1.0793   -2.4084    0.0000 H   0  0  0  0  0  0  0  0  0  0  0  0
  1  2  1  0  0  0  0
  2  3  1  0  0  0  0
  3  4  4  0  0  0  0
  3 20  4  0  0  0  0
  4  5  4  0  0  0  0
  5  6  4  0  0  0  0
  6  7  1  0  0  0  0
  6 18  4  0  0  0  0
  7  8  2  0  0  0  0
  7  9  1  0  0  0  0
  9 10  2  0  0  0  0
 10 11  1  0  0  0  0
 11 12  4  0  0  0  0
 11 17  4  0  0  0  0
 12 13  4  0  0  0  0
 13 14  4  0  0  0  0
 14 15  1  0  0  0  0
 14 16  4  0  0  0  0
 16 17  4  0  0  0  0
 18 19  1  0  0  0  0
 18 20  4  0  0  0  0
 13 21  1  0  0  0  0
 17 22  1  0  0  0  0
  5 23  1  0  0  0  0
  9 24  1  0  0  0  0
 19 25  1  0  0  0  0
 20 26  1  0  0  0  0
  1 27  1  0  0  0  0
  1 28  1  0  0  0  0
  1 29  1  0  0  0  0
 16 30  1  0  0  0  0
 10 31  1  0  0  0  0
  4 32  1  0  0  0  0
 12 33  1  0  0  0  0
M  END
> <Molecule ChEMBL ID>
CHEMBL406861

> <Class(50)>
0

> <Class(80)>
0

>  <salt>
false

>  <StandardizerResult>
Tautomerize (ID: Tautomerize)
Neutralize (ID: Neutralize)
Aromatize (ID: Aromatize)
Wedge Clean (ID: Wedge Clean)
Clean 2D (ID: Clean2D)

$$$$
CHEMBL1591074
  Mrv2010 08032110442D          

 33 35  0  0  1  0            999 V2000
    1.3963    2.5878    0.0000 C   0  0  0  0  0  0  0  0  0  0  0  0
    1.3963    1.7628    0.0000 C   0  0  0  0  0  0  0  0  0  0  0  0
    0.6818    1.3503    0.0000 C   0  0  0  0  0  0  0  0  0  0  0  0
   -0.0327    1.7628    0.0000 C   0  0  0  0  0  0  0  0  0  0  0  0
   -0.8173    1.5078    0.0000 S   0  0  0  0  0  0  0  0  0  0  0  0
   -1.3022    2.1753    0.0000 C   0  0  0  0  0  0  0  0  0  0  0  0
   -2.1272    2.1753    0.0000 S   0  0  0  0  0  0  0  0  0  0  0  0
   -2.5397    1.4608    0.0000 N   0  0  0  0  0  0  0  0  0  0  0  0
   -3.3647    1.4608    0.0000 C   0  0  0  0  0  0  0  0  0  0  0  0
   -3.7772    0.7463    0.0000 C   0  0  0  0  0  0  0  0  0  0  0  0
   -4.6022    0.7463    0.0000 C   0  0  0  0  0  0  0  0  0  0  0  0
   -5.0147    1.4608    0.0000 C   0  0  0  0  0  0  0  0  0  0  0  0
   -4.6022    2.1753    0.0000 C   0  0  0  0  0  0  0  0  0  0  0  0
   -3.7772    2.1753    0.0000 C   0  0  0  0  0  0  0  0  0  0  0  0
   -0.8173    2.8427    0.0000 N   0  0  0  0  0  0  0  0  0  0  0  0
   -0.0327    2.5878    0.0000 C   0  0  0  0  0  0  0  0  0  0  0  0
    0.6818    3.0003    0.0000 C   0  0  0  0  0  0  0  0  0  0  0  0
   -3.4950    2.9505    0.0000 H   0  0  0  0  0  0  0  0  0  0  0  0
   -4.0594    2.9505    0.0000 H   0  0  0  0  0  0  0  0  0  0  0  0
   -5.2915    0.2930    0.0000 H   0  0  0  0  0  0  0  0  0  0  0  0
   -4.6502   -0.0773    0.0000 H   0  0  0  0  0  0  0  0  0  0  0  0
    0.6818    3.8253    0.0000 H   0  0  0  0  0  0  0  0  0  0  0  0
   -3.7292   -0.0773    0.0000 H   0  0  0  0  0  0  0  0  0  0  0  0
   -3.0879    0.2930    0.0000 H   0  0  0  0  0  0  0  0  0  0  0  0
    0.6818    0.5253    0.0000 H   0  0  0  0  0  0  0  0  0  0  0  0
   -4.6502    2.9989    0.0000 H   0  0  0  0  0  0  0  0  0  0  0  0
   -5.2915    2.6286    0.0000 H   0  0  0  0  0  0  0  0  0  0  0  0
   -2.9522    2.1753    0.0000 H   0  0  0  0  0  0  0  0  0  0  0  0
   -5.7520    1.8311    0.0000 H   0  0  0  0  0  0  0  0  0  0  0  0
   -5.7520    1.0905    0.0000 H   0  0  0  0  0  0  0  0  0  0  0  0
   -2.1272    0.7463    0.0000 H   0  0  0  0  0  0  0  0  0  0  0  0
    2.1108    1.3503    0.0000 H   0  0  0  0  0  0  0  0  0  0  0  0
    2.1108    3.0003    0.0000 H   0  0  0  0  0  0  0  0  0  0  0  0
  1  2  4  0  0  0  0
  1 17  4  0  0  0  0
  2  3  4  0  0  0  0
  3  4  4  0  0  0  0
  4  5  4  0  0  0  0
  4 16  4  0  0  0  0
  5  6  4  0  0  0  0
  6  7  1  0  0  0  0
  6 15  4  0  0  0  0
  7  8  1  0  0  0  0
  8  9  1  0  0  0  0
  9 10  1  0  0  0  0
  9 14  1  0  0  0  0
 10 11  1  0  0  0  0
 11 12  1  0  0  0  0
 12 13  1  0  0  0  0
 13 14  1  0  0  0  0
 15 16  4  0  0  0  0
 16 17  4  0  0  0  0
 14 18  1  0  0  0  0
 14 19  1  0  0  0  0
 11 20  1  0  0  0  0
 11 21  1  0  0  0  0
 17 22  1  0  0  0  0
 10 23  1  0  0  0  0
 10 24  1  0  0  0  0
  3 25  1  0  0  0  0
 13 26  1  0  0  0  0
 13 27  1  0  0  0  0
  9 28  1  0  0  0  0
 12 29  1  0  0  0  0
 12 30  1  0  0  0  0
  8 31  1  0  0  0  0
  2 32  1  0  0  0  0
  1 33  1  0  0  0  0
M  END
> <Molecule ChEMBL ID>
CHEMBL1591074

> <Class(50)>
0

> <Class(80)>
0

>  <salt>
false

>  <StandardizerResult>
Tautomerize (ID: Tautomerize)
Transform (ID: Transform NO2 (1))
Aromatize (ID: Aromatize)
Wedge Clean (ID: Wedge Clean)
Clean 2D (ID: Clean2D)

$$$$
CHEMBL1320667
  Mrv2010 08032110442D          

 26 27  0  0  1  0            999 V2000
   -0.1711    1.6388    0.0000 O   0  0  0  0  0  0  0  0  0  0  0  0
   -0.1711    0.8138    0.0000 C   0  0  0  0  0  0  0  0  0  0  0  0
   -0.8856    0.4013    0.0000 O   0  0  0  0  0  0  0  0  0  0  0  0
    0.5434    0.4013    0.0000 C   0  0  0  0  0  0  0  0  0  0  0  0
    0.5434   -0.4237    0.0000 C   0  0  0  0  0  0  0  0  0  0  0  0
    1.2108   -0.9087    0.0000 C   0  0  0  0  0  0  0  0  0  0  0  0
    0.9559   -1.6933    0.0000 C   0  0  0  0  0  0  0  0  0  0  0  0
    0.1309   -1.6933    0.0000 N   0  0  0  0  0  0  0  0  0  0  0  0
   -0.1241   -0.9087    0.0000 O   0  0  0  0  0  0  0  0  0  0  0  0
    1.4408   -2.3607    0.0000 C   0  0  0  0  0  0  0  0  0  0  0  0
    2.2613   -2.2745    0.0000 C   0  0  0  0  0  0  0  0  0  0  0  0
    2.7462   -2.9419    0.0000 C   0  0  0  0  0  0  0  0  0  0  0  0
    2.4106   -3.6956    0.0000 C   0  0  0  0  0  0  0  0  0  0  0  0
    1.5902   -3.7818    0.0000 C   0  0  0  0  0  0  0  0  0  0  0  0
    1.1052   -3.1144    0.0000 C   0  0  0  0  0  0  0  0  0  0  0  0
   -0.1917   -0.0492    0.0000 H   0  0  0  0  0  0  0  0  0  0  0  0
    1.2546   -4.5355    0.0000 H   0  0  0  0  0  0  0  0  0  0  0  0
    1.3670    0.4492    0.0000 H   0  0  0  0  0  0  0  0  0  0  0  0
    0.9967    1.0905    0.0000 H   0  0  0  0  0  0  0  0  0  0  0  0
    2.0233   -1.0519    0.0000 H   0  0  0  0  0  0  0  0  0  0  0  0
    1.7839   -0.3152    0.0000 H   0  0  0  0  0  0  0  0  0  0  0  0
    2.5968   -1.5208    0.0000 H   0  0  0  0  0  0  0  0  0  0  0  0
    3.5667   -2.8557    0.0000 H   0  0  0  0  0  0  0  0  0  0  0  0
   -1.6000    0.8138    0.0000 H   0  0  0  0  0  0  0  0  0  0  0  0
    2.8956   -4.3630    0.0000 H   0  0  0  0  0  0  0  0  0  0  0  0
    0.2848   -3.2006    0.0000 H   0  0  0  0  0  0  0  0  0  0  0  0
  1  2  2  0  0  0  0
  2  3  1  0  0  0  0
  2  4  1  0  0  0  0
  4  5  1  0  0  0  0
  5  6  1  0  0  0  0
  5  9  1  0  0  0  0
  6  7  1  0  0  0  0
  7  8  2  0  0  0  0
  7 10  1  0  0  0  0
  8  9  1  0  0  0  0
 10 11  4  0  0  0  0
 10 15  4  0  0  0  0
 11 12  4  0  0  0  0
 12 13  4  0  0  0  0
 13 14  4  0  0  0  0
 14 15  4  0  0  0  0
  5 16  1  0  0  0  0
 14 17  1  0  0  0  0
  4 18  1  0  0  0  0
  4 19  1  0  0  0  0
  6 20  1  0  0  0  0
  6 21  1  0  0  0  0
 11 22  1  0  0  0  0
 12 23  1  0  0  0  0
  3 24  1  0  0  0  0
 13 25  1  0  0  0  0
 15 26  1  0  0  0  0
M  END
> <Molecule ChEMBL ID>
CHEMBL1320667

> <Class(50)>
0

> <Class(80)>
0

>  <salt>
false

>  <StandardizerResult>
Tautomerize (ID: Tautomerize)
Transform (ID: Transform NO2 (1))
Aromatize (ID: Aromatize)
Wedge Clean (ID: Wedge Clean)
Clean 2D (ID: Clean2D)

$$$$
CHEMBL94081
  Mrv2010 08032110442D          

 26 26  0  0  0  0            999 V2000
   -0.5679    2.7052    0.0000 C   0  0  0  0  0  0  0  0  0  0  0  0
    0.1465    2.2927    0.0000 C   0  0  0  0  0  0  0  0  0  0  0  0
    0.1465    1.4677    0.0000 C   0  0  0  0  0  0  0  0  0  0  0  0
    0.8610    1.0552    0.0000 O   0  0  0  0  0  0  0  0  0  0  0  0
    0.8610    0.2302    0.0000 C   0  0  0  0  0  0  0  0  0  0  0  0
    1.5755   -0.1823    0.0000 C   0  0  0  0  0  0  0  0  0  0  0  0
    1.5755   -1.0073    0.0000 C   0  0  0  0  0  0  0  0  0  0  0  0
    0.8610   -1.4198    0.0000 C   0  0  0  0  0  0  0  0  0  0  0  0
    0.8610   -2.2448    0.0000 C   0  0  0  0  0  0  0  0  0  0  0  0
    0.1465   -2.6573    0.0000 C   0  0  0  0  0  0  0  0  0  0  0  0
    0.1465   -3.4823    0.0000 O   0  0  0  0  0  0  0  0  0  0  0  0
   -0.5679   -2.2448    0.0000 O   0  0  0  0  0  0  0  0  0  0  0  0
    0.1465   -1.0073    0.0000 C   0  0  0  0  0  0  0  0  0  0  0  0
    0.1465   -0.1823    0.0000 C   0  0  0  0  0  0  0  0  0  0  0  0
   -0.5679    0.2302    0.0000 Cl  0  0  0  0  0  0  0  0  0  0  0  0
   -0.5679   -1.4198    0.0000 H   0  0  0  0  0  0  0  0  0  0  0  0
    2.2899   -1.4198    0.0000 H   0  0  0  0  0  0  0  0  0  0  0  0
    2.2899    0.2302    0.0000 H   0  0  0  0  0  0  0  0  0  0  0  0
   -0.5679   -0.5948    0.0000 H   0  0  0  0  0  0  0  0  0  0  0  0
    1.3144   -2.9341    0.0000 H   0  0  0  0  0  0  0  0  0  0  0  0
    1.6846   -2.2928    0.0000 H   0  0  0  0  0  0  0  0  0  0  0  0
   -0.5679    3.5302    0.0000 H   0  0  0  0  0  0  0  0  0  0  0  0
   -1.2824    2.2927    0.0000 H   0  0  0  0  0  0  0  0  0  0  0  0
   -0.6771    1.4197    0.0000 H   0  0  0  0  0  0  0  0  0  0  0  0
   -0.3068    0.7784    0.0000 H   0  0  0  0  0  0  0  0  0  0  0  0
    0.8610    2.7052    0.0000 H   0  0  0  0  0  0  0  0  0  0  0  0
  1  2  2  0  0  0  0
  2  3  1  0  0  0  0
  3  4  1  0  0  0  0
  4  5  1  0  0  0  0
  5  6  4  0  0  0  0
  5 14  4  0  0  0  0
  6  7  4  0  0  0  0
  7  8  4  0  0  0  0
  8  9  1  0  0  0  0
  8 13  4  0  0  0  0
  9 10  1  0  0  0  0
 10 11  2  0  0  0  0
 10 12  1  0  0  0  0
 13 14  4  0  0  0  0
 14 15  1  0  0  0  0
 12 16  1  0  0  0  0
  7 17  1  0  0  0  0
  6 18  1  0  0  0  0
 13 19  1  0  0  0  0
  9 20  1  0  0  0  0
  9 21  1  0  0  0  0
  1 22  1  0  0  0  0
  1 23  1  0  0  0  0
  3 24  1  0  0  0  0
  3 25  1  0  0  0  0
  2 26  1  0  0  0  0
M  END
> <Molecule ChEMBL ID>
CHEMBL94081

> <Class(50)>
0

> <Class(80)>
0

>  <salt>
false

>  <StandardizerResult>
Tautomerize (ID: Tautomerize)
Neutralize (ID: Neutralize)
Aromatize (ID: Aromatize)
Wedge Clean (ID: Wedge Clean)
Clean 2D (ID: Clean2D)

$$$$
CHEMBL288114
  Mrv2010 08032110442D          

 18 18  0  0  0  0            999 V2000
   -0.6228    2.0502    0.0000 O   0  0  0  0  0  0  0  0  0  0  0  0
    0.0917    1.6377    0.0000 C   0  0  0  0  0  0  0  0  0  0  0  0
    0.8061    2.0502    0.0000 O   0  0  0  0  0  0  0  0  0  0  0  0
    0.0917    0.8127    0.0000 C   0  0  0  0  0  0  0  0  0  0  0  0
    0.8061    0.4002    0.0000 C   0  0  0  0  0  0  0  0  0  0  0  0
    0.8061   -0.4248    0.0000 C   0  0  0  0  0  0  0  0  0  0  0  0
    1.5206   -0.8373    0.0000 O   0  0  0  0  0  0  0  0  0  0  0  0
    0.0917   -0.8373    0.0000 C   0  0  0  0  0  0  0  0  0  0  0  0
    0.0917   -1.6623    0.0000 O   0  0  0  0  0  0  0  0  0  0  0  0
   -0.6228   -0.4248    0.0000 C   0  0  0  0  0  0  0  0  0  0  0  0
   -1.3373   -0.8373    0.0000 O   0  0  0  0  0  0  0  0  0  0  0  0
   -0.6228    0.4002    0.0000 C   0  0  0  0  0  0  0  0  0  0  0  0
   -2.0517   -0.4248    0.0000 H   0  0  0  0  0  0  0  0  0  0  0  0
   -1.3373    0.8127    0.0000 H   0  0  0  0  0  0  0  0  0  0  0  0
    1.5206    0.8127    0.0000 H   0  0  0  0  0  0  0  0  0  0  0  0
   -0.6228   -2.0748    0.0000 H   0  0  0  0  0  0  0  0  0  0  0  0
    1.5206    1.6377    0.0000 H   0  0  0  0  0  0  0  0  0  0  0  0
    1.5206   -1.6623    0.0000 H   0  0  0  0  0  0  0  0  0  0  0  0
  1  2  2  0  0  0  0
  2  3  1  0  0  0  0
  2  4  1  0  0  0  0
  4  5  4  0  0  0  0
  4 12  4  0  0  0  0
  5  6  4  0  0  0  0
  6  7  1  0  0  0  0
  6  8  4  0  0  0  0
  8  9  1  0  0  0  0
  8 10  4  0  0  0  0
 10 11  1  0  0  0  0
 10 12  4  0  0  0  0
 11 13  1  0  0  0  0
 12 14  1  0  0  0  0
  5 15  1  0  0  0  0
  9 16  1  0  0  0  0
  3 17  1  0  0  0  0
  7 18  1  0  0  0  0
M  END
> <Molecule ChEMBL ID>
CHEMBL288114

> <Class(50)>
1

> <Class(80)>
0

>  <salt>
false

>  <StandardizerResult>
Tautomerize (ID: Tautomerize)
Neutralize (ID: Neutralize)
Aromatize (ID: Aromatize)
Wedge Clean (ID: Wedge Clean)
Clean 2D (ID: Clean2D)

$$$$
CHEMBL925
  Mrv2010 08032110442D          

 24 24  0  0  1  0            999 V2000
   -0.2329    0.3783    0.0000 N   0  0  0  0  0  0  0  0  0  0  0  0
    0.4816    0.7908    0.0000 C   0  0  1  0  0  0  0  0  0  0  0  0
    1.1961    0.3783    0.0000 C   0  0  0  0  0  0  0  0  0  0  0  0
    1.1961   -0.4467    0.0000 C   0  0  0  0  0  0  0  0  0  0  0  0
    1.9105   -0.8592    0.0000 C   0  0  0  0  0  0  0  0  0  0  0  0
    1.9105   -1.6842    0.0000 C   0  0  0  0  0  0  0  0  0  0  0  0
    1.1961   -2.0967    0.0000 C   0  0  0  0  0  0  0  0  0  0  0  0
    1.1961   -2.9217    0.0000 O   0  0  0  0  0  0  0  0  0  0  0  0
    0.4816   -1.6842    0.0000 C   0  0  0  0  0  0  0  0  0  0  0  0
    0.4816   -0.8592    0.0000 C   0  0  0  0  0  0  0  0  0  0  0  0
    0.4816    1.6158    0.0000 C   0  0  0  0  0  0  0  0  0  0  0  0
   -0.2329    2.0283    0.0000 O   0  0  0  0  0  0  0  0  0  0  0  0
    1.1961    2.0283    0.0000 O   0  0  0  0  0  0  0  0  0  0  0  0
    0.4816   -3.3342    0.0000 H   0  0  0  0  0  0  0  0  0  0  0  0
    1.9105    1.6158    0.0000 H   0  0  0  0  0  0  0  0  0  0  0  0
   -0.9474    0.7908    0.0000 H   0  0  0  0  0  0  0  0  0  0  0  0
   -0.2329   -0.4467    0.0000 H   0  0  0  0  0  0  0  0  0  0  0  0
    1.1961   -1.2717    0.0000 H   0  0  0  0  0  0  0  0  0  0  0  0
   -0.2329   -2.0967    0.0000 H   0  0  0  0  0  0  0  0  0  0  0  0
    2.0197    0.4263    0.0000 H   0  0  0  0  0  0  0  0  0  0  0  0
    1.6494    1.0676    0.0000 H   0  0  0  0  0  0  0  0  0  0  0  0
    2.6250   -0.4467    0.0000 H   0  0  0  0  0  0  0  0  0  0  0  0
    0.4816   -0.0342    0.0000 H   0  0  0  0  0  0  0  0  0  0  0  0
    2.6250   -2.0967    0.0000 H   0  0  0  0  0  0  0  0  0  0  0  0
  2  1  1  0  0  0  0
  2  3  1  0  0  0  0
  2 11  1  0  0  0  0
  3  4  1  0  0  0  0
  4  5  4  0  0  0  0
  4 10  4  0  0  0  0
  5  6  4  0  0  0  0
  6  7  4  0  0  0  0
  7  8  1  0  0  0  0
  7  9  4  0  0  0  0
  9 10  4  0  0  0  0
 11 12  2  0  0  0  0
 11 13  1  0  0  0  0
  8 14  1  0  0  0  0
 13 15  1  0  0  0  0
  1 16  1  0  0  0  0
  1 17  1  0  0  0  0
 10 18  1  0  0  0  0
  9 19  1  0  0  0  0
  3 20  1  0  0  0  0
  3 21  1  0  0  0  0
  5 22  1  0  0  0  0
  2 23  1  1  0  0  0
  6 24  1  0  0  0  0
M  END
> <Molecule ChEMBL ID>
CHEMBL925

> <Class(50)>
0

> <Class(80)>
0

>  <salt>
false

>  <StandardizerResult>
Tautomerize (ID: Tautomerize)
Transform (ID: Transform NO2 (1))
Aromatize (ID: Aromatize)
Wedge Clean (ID: Wedge Clean)
Clean 2D (ID: Clean2D)

$$$$
CHEMBL541
  Mrv2010 08032110442D          

 15 15  0  0  0  0            999 V2000
   -0.3697    1.7728    0.0000 O   0  0  0  0  0  0  0  0  0  0  0  0
    0.3447    1.3603    0.0000 C   0  0  0  0  0  0  0  0  0  0  0  0
    1.0592    1.7728    0.0000 O   0  0  0  0  0  0  0  0  0  0  0  0
    0.3447    0.5353    0.0000 C   0  0  0  0  0  0  0  0  0  0  0  0
    1.0592    0.1228    0.0000 C   0  0  0  0  0  0  0  0  0  0  0  0
    1.0592   -0.7022    0.0000 C   0  0  0  0  0  0  0  0  0  0  0  0
    0.3447   -1.1147    0.0000 C   0  0  0  0  0  0  0  0  0  0  0  0
   -0.3697   -0.7022    0.0000 C   0  0  0  0  0  0  0  0  0  0  0  0
   -0.3697    0.1228    0.0000 C   0  0  0  0  0  0  0  0  0  0  0  0
    0.3447   -1.9397    0.0000 H   0  0  0  0  0  0  0  0  0  0  0  0
    1.7737   -1.1147    0.0000 H   0  0  0  0  0  0  0  0  0  0  0  0
    1.7737    1.3603    0.0000 H   0  0  0  0  0  0  0  0  0  0  0  0
    1.7737    0.5353    0.0000 H   0  0  0  0  0  0  0  0  0  0  0  0
   -1.0842   -1.1147    0.0000 H   0  0  0  0  0  0  0  0  0  0  0  0
   -1.0842    0.5353    0.0000 H   0  0  0  0  0  0  0  0  0  0  0  0
  1  2  2  0  0  0  0
  2  3  1  0  0  0  0
  2  4  1  0  0  0  0
  4  5  4  0  0  0  0
  4  9  4  0  0  0  0
  5  6  4  0  0  0  0
  6  7  4  0  0  0  0
  7  8  4  0  0  0  0
  8  9  4  0  0  0  0
  7 10  1  0  0  0  0
  6 11  1  0  0  0  0
  3 12  1  0  0  0  0
  5 13  1  0  0  0  0
  8 14  1  0  0  0  0
  9 15  1  0  0  0  0
M  END
> <Molecule ChEMBL ID>
CHEMBL541

> <Class(50)>
0

> <Class(80)>
0

>  <salt>
false

>  <StandardizerResult>
Tautomerize (ID: Tautomerize)
Neutralize (ID: Neutralize)
Aromatize (ID: Aromatize)
Wedge Clean (ID: Wedge Clean)
Clean 2D (ID: Clean2D)

$$$$
CHEMBL379845
  Mrv2010 08032110442D          

 17 17  0  0  0  0            999 V2000
    0.3558    1.9614    0.0000 C   0  0  0  0  0  0  0  0  0  0  0  0
    0.3558    1.1364    0.0000 O   0  0  0  0  0  0  0  0  0  0  0  0
    1.0702    0.7239    0.0000 C   0  0  0  0  0  0  0  0  0  0  0  0
    1.7847    1.1364    0.0000 O   0  0  0  0  0  0  0  0  0  0  0  0
    1.0702   -0.1011    0.0000 C   0  0  0  0  0  0  0  0  0  0  0  0
    1.7847   -0.5136    0.0000 C   0  0  0  0  0  0  0  0  0  0  0  0
    1.7847   -1.3386    0.0000 C   0  0  0  0  0  0  0  0  0  0  0  0
    1.0702   -1.7511    0.0000 C   0  0  0  0  0  0  0  0  0  0  0  0
    0.3558   -1.3386    0.0000 N   0  0  0  0  0  0  0  0  0  0  0  0
    0.3558   -0.5136    0.0000 C   0  0  0  0  0  0  0  0  0  0  0  0
    2.4992   -1.7511    0.0000 H   0  0  0  0  0  0  0  0  0  0  0  0
    1.1808    1.9614    0.0000 H   0  0  0  0  0  0  0  0  0  0  0  0
    0.3558    2.7864    0.0000 H   0  0  0  0  0  0  0  0  0  0  0  0
   -0.4692    1.9614    0.0000 H   0  0  0  0  0  0  0  0  0  0  0  0
    1.0702   -2.5761    0.0000 H   0  0  0  0  0  0  0  0  0  0  0  0
   -0.3587   -0.1011    0.0000 H   0  0  0  0  0  0  0  0  0  0  0  0
    2.4992   -0.1011    0.0000 H   0  0  0  0  0  0  0  0  0  0  0  0
  1  2  1  0  0  0  0
  2  3  1  0  0  0  0
  3  4  2  0  0  0  0
  3  5  1  0  0  0  0
  5  6  4  0  0  0  0
  5 10  4  0  0  0  0
  6  7  4  0  0  0  0
  7  8  4  0  0  0  0
  8  9  4  0  0  0  0
  9 10  4  0  0  0  0
  7 11  1  0  0  0  0
  1 12  1  0  0  0  0
  1 13  1  0  0  0  0
  1 14  1  0  0  0  0
  8 15  1  0  0  0  0
 10 16  1  0  0  0  0
  6 17  1  0  0  0  0
M  END
> <Molecule ChEMBL ID>
CHEMBL379845

> <Class(50)>
0

> <Class(80)>
0

>  <salt>
false

>  <StandardizerResult>
Tautomerize (ID: Tautomerize)
Neutralize (ID: Neutralize)
Aromatize (ID: Aromatize)
Wedge Clean (ID: Wedge Clean)
Clean 2D (ID: Clean2D)

$$$$
CHEMBL448399
  Mrv2010 08032110442D          

 19 19  0  0  0  0            999 V2000
    0.5196    1.7035    0.0000 C   0  0  0  0  0  0  0  0  0  0  0  0
    0.5196    0.8785    0.0000 C   0  0  0  0  0  0  0  0  0  0  0  0
    1.2340    0.4660    0.0000 C   0  0  0  0  0  0  0  0  0  0  0  0
    1.2340   -0.3590    0.0000 C   0  0  0  0  0  0  0  0  0  0  0  0
    0.5196   -0.7715    0.0000 C   0  0  0  0  0  0  0  0  0  0  0  0
   -0.1949   -0.3590    0.0000 C   0  0  0  0  0  0  0  0  0  0  0  0
   -0.9094   -0.7715    0.0000 C   0  0  0  0  0  0  0  0  0  0  0  0
   -0.9094   -1.5965    0.0000 O   0  0  0  0  0  0  0  0  0  0  0  0
   -1.6239   -0.3590    0.0000 O   0  0  0  0  0  0  0  0  0  0  0  0
   -0.1949    0.4660    0.0000 C   0  0  0  0  0  0  0  0  0  0  0  0
   -0.9094    0.8785    0.0000 O   0  0  0  0  0  0  0  0  0  0  0  0
   -0.9094    1.7035    0.0000 H   0  0  0  0  0  0  0  0  0  0  0  0
   -1.6239    0.4660    0.0000 H   0  0  0  0  0  0  0  0  0  0  0  0
    1.3446    1.7035    0.0000 H   0  0  0  0  0  0  0  0  0  0  0  0
    0.5196    2.5285    0.0000 H   0  0  0  0  0  0  0  0  0  0  0  0
   -0.3054    1.7035    0.0000 H   0  0  0  0  0  0  0  0  0  0  0  0
    1.9485    0.8785    0.0000 H   0  0  0  0  0  0  0  0  0  0  0  0
    0.5196   -1.5965    0.0000 H   0  0  0  0  0  0  0  0  0  0  0  0
    1.9485   -0.7715    0.0000 H   0  0  0  0  0  0  0  0  0  0  0  0
  1  2  1  0  0  0  0
  2  3  4  0  0  0  0
  2 10  4  0  0  0  0
  3  4  4  0  0  0  0
  4  5  4  0  0  0  0
  5  6  4  0  0  0  0
  6  7  1  0  0  0  0
  6 10  4  0  0  0  0
  7  8  2  0  0  0  0
  7  9  1  0  0  0  0
 10 11  1  0  0  0  0
 11 12  1  0  0  0  0
  9 13  1  0  0  0  0
  1 14  1  0  0  0  0
  1 15  1  0  0  0  0
  1 16  1  0  0  0  0
  3 17  1  0  0  0  0
  5 18  1  0  0  0  0
  4 19  1  0  0  0  0
M  END
> <Molecule ChEMBL ID>
CHEMBL448399

> <Class(50)>
0

> <Class(80)>
0

>  <salt>
false

>  <StandardizerResult>
Tautomerize (ID: Tautomerize)
Neutralize (ID: Neutralize)
Aromatize (ID: Aromatize)
Wedge Clean (ID: Wedge Clean)
Clean 2D (ID: Clean2D)

$$$$
CHEMBL6466
  Mrv2010 08032110442D          

 17 18  0  0  0  0            999 V2000
   -2.0884   -1.5945    0.0000 O   0  0  0  0  0  0  0  0  0  0  0  0
   -1.3739   -1.1820    0.0000 C   0  0  0  0  0  0  0  0  0  0  0  0
   -1.3739   -0.3570    0.0000 C   0  0  0  0  0  0  0  0  0  0  0  0
   -0.6594    0.0555    0.0000 C   0  0  0  0  0  0  0  0  0  0  0  0
    0.0550   -0.3570    0.0000 C   0  0  0  0  0  0  0  0  0  0  0  0
    0.7695    0.0555    0.0000 C   0  0  0  0  0  0  0  0  0  0  0  0
    1.4840   -0.3570    0.0000 C   0  0  0  0  0  0  0  0  0  0  0  0
    1.4840   -1.1820    0.0000 C   0  0  0  0  0  0  0  0  0  0  0  0
    0.7695   -1.5945    0.0000 C   0  0  0  0  0  0  0  0  0  0  0  0
    0.0550   -1.1820    0.0000 C   0  0  0  0  0  0  0  0  0  0  0  0
   -0.6594   -1.5945    0.0000 O   0  0  0  0  0  0  0  0  0  0  0  0
   -0.6594    0.8805    0.0000 H   0  0  0  0  0  0  0  0  0  0  0  0
    0.7695   -2.4195    0.0000 H   0  0  0  0  0  0  0  0  0  0  0  0
    0.7695    0.8805    0.0000 H   0  0  0  0  0  0  0  0  0  0  0  0
    2.1984    0.0555    0.0000 H   0  0  0  0  0  0  0  0  0  0  0  0
   -2.0884    0.0555    0.0000 H   0  0  0  0  0  0  0  0  0  0  0  0
    2.1984   -1.5945    0.0000 H   0  0  0  0  0  0  0  0  0  0  0  0
  1  2  2  0  0  0  0
  2  3  1  0  0  0  0
  2 11  1  0  0  0  0
  3  4  2  0  0  0  0
  4  5  1  0  0  0  0
  5  6  4  0  0  0  0
  5 10  4  0  0  0  0
  6  7  4  0  0  0  0
  7  8  4  0  0  0  0
  8  9  4  0  0  0  0
  9 10  4  0  0  0  0
 10 11  1  0  0  0  0
  4 12  1  0  0  0  0
  9 13  1  0  0  0  0
  6 14  1  0  0  0  0
  7 15  1  0  0  0  0
  3 16  1  0  0  0  0
  8 17  1  0  0  0  0
M  END
> <Molecule ChEMBL ID>
CHEMBL6466

> <Class(50)>
0

> <Class(80)>
0

>  <salt>
false

>  <StandardizerResult>
Tautomerize (ID: Tautomerize)
Neutralize (ID: Neutralize)
Aromatize (ID: Aromatize)
Wedge Clean (ID: Wedge Clean)
Clean 2D (ID: Clean2D)

$$$$
CHEMBL1200474
  Mrv2010 08032110442D          

 53 56  0  0  1  0            999 V2000
   -0.8762   -4.6915    0.0000 C   0  0  0  0  0  0  0  0  0  0  0  0
   -1.5907   -4.2790    0.0000 N   0  0  0  0  0  0  0  0  0  0  0  0
   -2.3052   -4.6915    0.0000 C   0  0  0  0  0  0  0  0  0  0  0  0
   -1.5907   -3.4540    0.0000 C   0  0  1  0  0  0  0  0  0  0  0  0
   -2.3052   -3.0415    0.0000 C   0  0  0  0  0  0  0  0  0  0  0  0
   -2.3052   -2.2165    0.0000 C   0  0  1  0  0  0  0  0  0  0  0  0
   -3.0197   -1.8040    0.0000 C   0  0  0  0  0  0  0  0  0  0  0  0
   -3.0197   -0.9790    0.0000 O   0  0  0  0  0  0  0  0  0  0  0  0
   -3.7341   -2.2165    0.0000 N   0  0  0  0  0  0  0  0  0  0  0  0
   -1.5907   -1.8040    0.0000 C   0  0  0  0  0  0  0  0  0  0  0  0
   -1.5907   -0.9790    0.0000 O   0  0  0  0  0  0  0  0  0  0  0  0
   -0.8762   -2.2165    0.0000 C   0  0  0  0  0  0  0  0  0  0  0  0
   -0.8762   -1.3915    0.0000 O   0  0  0  0  0  0  0  0  0  0  0  0
   -0.1618   -1.8040    0.0000 C   0  0  0  0  0  0  0  0  0  0  0  0
    0.5527   -2.2165    0.0000 C   0  0  0  0  0  0  0  0  0  0  0  0
    1.2672   -1.8040    0.0000 C   0  0  0  0  0  0  0  0  0  0  0  0
    1.2672   -0.9790    0.0000 O   0  0  0  0  0  0  0  0  0  0  0  0
    1.9816   -2.2165    0.0000 C   0  0  0  0  0  0  0  0  0  0  0  0
    2.6961   -1.8040    0.0000 C   0  0  0  0  0  0  0  0  0  0  0  0
    2.6961   -0.9790    0.0000 O   0  0  0  0  0  0  0  0  0  0  0  0
    3.4106   -2.2165    0.0000 C   0  0  0  0  0  0  0  0  0  0  0  0
    3.4106   -3.0415    0.0000 C   0  0  0  0  0  0  0  0  0  0  0  0
    2.6961   -3.4540    0.0000 C   0  0  0  0  0  0  0  0  0  0  0  0
    2.6961   -4.2790    0.0000 Cl  0  0  0  0  0  0  0  0  0  0  0  0
    1.9816   -3.0415    0.0000 C   0  0  0  0  0  0  0  0  0  0  0  0
    1.2672   -3.4540    0.0000 C   0  0  1  0  0  0  0  0  0  0  0  0
    1.2672   -4.2790    0.0000 O   0  0  0  0  0  0  0  0  0  0  0  0
    0.5527   -3.0415    0.0000 C   0  0  1  0  0  0  0  0  0  0  0  0
   -0.1618   -3.4540    0.0000 C   0  0  0  0  0  0  0  0  0  0  0  0
   -0.8762   -3.0415    0.0000 C   0  0  1  0  0  0  0  0  0  0  0  0
   -0.1618   -0.9790    0.0000 O   0  0  0  0  0  0  0  0  0  0  0  0
   -3.0197   -3.4540    0.0000 O   0  0  0  0  0  0  0  0  0  0  0  0
    3.4106   -0.5665    0.0000 H   0  0  0  0  0  0  0  0  0  0  0  0
   -1.2887   -5.4060    0.0000 H   0  0  0  0  0  0  0  0  0  0  0  0
   -0.1618   -5.1040    0.0000 H   0  0  0  0  0  0  0  0  0  0  0  0
   -0.4637   -3.9770    0.0000 H   0  0  0  0  0  0  0  0  0  0  0  0
   -0.8762   -3.8665    0.0000 H   0  0  0  0  0  0  0  0  0  0  0  0
    1.6797   -4.9935    0.0000 H   0  0  0  0  0  0  0  0  0  0  0  0
   -4.4486   -1.8040    0.0000 H   0  0  0  0  0  0  0  0  0  0  0  0
   -3.7341   -3.0415    0.0000 H   0  0  0  0  0  0  0  0  0  0  0  0
   -0.1618   -2.6290    0.0000 H   0  0  0  0  0  0  0  0  0  0  0  0
   -1.5907   -2.6290    0.0000 H   0  0  0  0  0  0  0  0  0  0  0  0
   -0.8762   -0.5665    0.0000 H   0  0  0  0  0  0  0  0  0  0  0  0
    0.5527   -0.5665    0.0000 H   0  0  0  0  0  0  0  0  0  0  0  0
   -2.7177   -3.9770    0.0000 H   0  0  0  0  0  0  0  0  0  0  0  0
   -3.0197   -5.1040    0.0000 H   0  0  0  0  0  0  0  0  0  0  0  0
   -1.8927   -5.4060    0.0000 H   0  0  0  0  0  0  0  0  0  0  0  0
   -2.3052   -1.3915    0.0000 H   0  0  0  0  0  0  0  0  0  0  0  0
    4.1250   -3.4540    0.0000 H   0  0  0  0  0  0  0  0  0  0  0  0
    0.5527   -3.8665    0.0000 H   0  0  0  0  0  0  0  0  0  0  0  0
    4.1250   -1.8040    0.0000 H   0  0  0  0  0  0  0  0  0  0  0  0
    0.0517   -4.2509    0.0000 H   0  0  0  0  0  0  0  0  0  0  0  0
   -0.9868   -3.4540    0.0000 H   0  0  0  0  0  0  0  0  0  0  0  0
  1  2  1  0  0  0  0
  2  3  1  0  0  0  0
  4  2  1  0  0  0  0
  4  5  1  0  0  0  0
 30  4  1  0  0  0  0
  6  5  1  0  0  0  0
  5 32  2  0  0  0  0
  6  7  1  0  0  0  0
  6 10  1  0  0  0  0
  7  8  2  0  0  0  0
  7  9  1  0  0  0  0
 10 11  2  0  0  0  0
 10 12  1  0  0  0  0
 12 13  1  0  0  0  0
 12 14  1  0  0  0  0
 30 12  1  0  0  0  0
 14 15  2  0  0  0  0
 14 31  1  0  0  0  0
 15 16  1  0  0  0  0
 28 15  1  0  0  0  0
 16 17  2  0  0  0  0
 16 18  1  0  0  0  0
 18 19  4  0  0  0  0
 18 25  4  0  0  0  0
 19 20  1  0  0  0  0
 19 21  4  0  0  0  0
 21 22  4  0  0  0  0
 22 23  4  0  0  0  0
 23 24  1  0  0  0  0
 23 25  4  0  0  0  0
 26 25  1  0  0  0  0
 26 27  1  0  0  0  0
 26 28  1  0  0  0  0
 28 29  1  0  0  0  0
 30 29  1  0  0  0  0
 20 33  1  0  0  0  0
  1 34  1  0  0  0  0
  1 35  1  0  0  0  0
  1 36  1  0  0  0  0
  4 37  1  6  0  0  0
 27 38  1  0  0  0  0
  9 39  1  0  0  0  0
  9 40  1  0  0  0  0
 28 41  1  6  0  0  0
 30 42  1  6  0  0  0
 13 43  1  0  0  0  0
 31 44  1  0  0  0  0
  3 45  1  0  0  0  0
  3 46  1  0  0  0  0
  3 47  1  0  0  0  0
  6 48  1  6  0  0  0
 22 49  1  0  0  0  0
 26 50  1  6  0  0  0
 21 51  1  0  0  0  0
 29 52  1  0  0  0  0
 29 53  1  0  0  0  0
M  END
> <Molecule ChEMBL ID>
CHEMBL1200474

> <Class(50)>
0

> <Class(80)>
0

>  <salt>
true

>  <StandardizerResult>
Tautomerize (ID: Tautomerize)
Transform (ID: Transform NO2 (1))
Aromatize (ID: Aromatize)
Wedge Clean (ID: Wedge Clean)
Clean 2D (ID: Clean2D)

$$$$
CHEMBL312607
  Mrv2010 08032110442D          

 18 19  0  0  0  0            999 V2000
   -2.1759   -1.8059    0.0000 O   0  0  0  0  0  0  0  0  0  0  0  0
   -1.7634   -1.0914    0.0000 C   0  0  0  0  0  0  0  0  0  0  0  0
   -2.1759   -0.3770    0.0000 O   0  0  0  0  0  0  0  0  0  0  0  0
   -0.9384   -1.0914    0.0000 C   0  0  0  0  0  0  0  0  0  0  0  0
   -0.4535   -0.4240    0.0000 C   0  0  0  0  0  0  0  0  0  0  0  0
    0.3311   -0.6789    0.0000 C   0  0  0  0  0  0  0  0  0  0  0  0
    1.0456   -0.2664    0.0000 C   0  0  0  0  0  0  0  0  0  0  0  0
    1.7601   -0.6789    0.0000 C   0  0  0  0  0  0  0  0  0  0  0  0
    1.7601   -1.5039    0.0000 C   0  0  0  0  0  0  0  0  0  0  0  0
    1.0456   -1.9164    0.0000 C   0  0  0  0  0  0  0  0  0  0  0  0
    0.3311   -1.5039    0.0000 C   0  0  0  0  0  0  0  0  0  0  0  0
   -0.4535   -1.7589    0.0000 S   0  0  0  0  0  0  0  0  0  0  0  0
    2.4745   -0.2664    0.0000 H   0  0  0  0  0  0  0  0  0  0  0  0
   -1.7634    0.3375    0.0000 H   0  0  0  0  0  0  0  0  0  0  0  0
   -0.7084    0.3606    0.0000 H   0  0  0  0  0  0  0  0  0  0  0  0
    2.4745   -1.9164    0.0000 H   0  0  0  0  0  0  0  0  0  0  0  0
    1.0456   -2.7414    0.0000 H   0  0  0  0  0  0  0  0  0  0  0  0
    1.0456    0.5586    0.0000 H   0  0  0  0  0  0  0  0  0  0  0  0
  1  2  2  0  0  0  0
  2  3  1  0  0  0  0
  2  4  1  0  0  0  0
  4  5  4  0  0  0  0
  4 12  4  0  0  0  0
  5  6  4  0  0  0  0
  6  7  4  0  0  0  0
  6 11  4  0  0  0  0
  7  8  4  0  0  0  0
  8  9  4  0  0  0  0
  9 10  4  0  0  0  0
 10 11  4  0  0  0  0
 11 12  4  0  0  0  0
  8 13  1  0  0  0  0
  3 14  1  0  0  0  0
  5 15  1  0  0  0  0
  9 16  1  0  0  0  0
 10 17  1  0  0  0  0
  7 18  1  0  0  0  0
M  END
> <Molecule ChEMBL ID>
CHEMBL312607

> <Class(50)>
0

> <Class(80)>
0

>  <salt>
false

>  <StandardizerResult>
Tautomerize (ID: Tautomerize)
Neutralize (ID: Neutralize)
Aromatize (ID: Aromatize)
Wedge Clean (ID: Wedge Clean)
Clean 2D (ID: Clean2D)

$$$$
CHEMBL348000
  Mrv2010 08032110442D          

 30 32  0  0  0  0            999 V2000
    1.2981   -4.0073    0.0000 O   0  0  0  0  0  0  0  0  0  0  0  0
    0.5836   -3.5948    0.0000 C   0  0  0  0  0  0  0  0  0  0  0  0
   -0.1309   -4.0073    0.0000 O   0  0  0  0  0  0  0  0  0  0  0  0
    0.5836   -2.7698    0.0000 C   0  0  0  0  0  0  0  0  0  0  0  0
   -0.1309   -2.3573    0.0000 C   0  0  0  0  0  0  0  0  0  0  0  0
   -0.1309   -1.5323    0.0000 C   0  0  0  0  0  0  0  0  0  0  0  0
   -0.8453   -1.1198    0.0000 C   0  0  0  0  0  0  0  0  0  0  0  0
   -1.5598   -1.5323    0.0000 C   0  0  0  0  0  0  0  0  0  0  0  0
   -2.2743   -1.1198    0.0000 C   0  0  0  0  0  0  0  0  0  0  0  0
   -2.2743   -0.2948    0.0000 C   0  0  0  0  0  0  0  0  0  0  0  0
   -1.5598    0.1177    0.0000 C   0  0  0  0  0  0  0  0  0  0  0  0
   -0.8453   -0.2948    0.0000 C   0  0  0  0  0  0  0  0  0  0  0  0
    0.5836   -1.1198    0.0000 N   0  0  0  0  0  0  0  0  0  0  0  0
    1.2981   -1.5323    0.0000 C   0  0  0  0  0  0  0  0  0  0  0  0
    2.0126   -1.1198    0.0000 C   0  0  0  0  0  0  0  0  0  0  0  0
    2.7270   -1.5323    0.0000 C   0  0  0  0  0  0  0  0  0  0  0  0
    2.7270   -2.3573    0.0000 C   0  0  0  0  0  0  0  0  0  0  0  0
    2.0126   -2.7698    0.0000 C   0  0  0  0  0  0  0  0  0  0  0  0
    1.2981   -2.3573    0.0000 C   0  0  0  0  0  0  0  0  0  0  0  0
   -0.8453   -3.5948    0.0000 H   0  0  0  0  0  0  0  0  0  0  0  0
    2.0126   -0.2948    0.0000 H   0  0  0  0  0  0  0  0  0  0  0  0
   -0.1309    0.1177    0.0000 H   0  0  0  0  0  0  0  0  0  0  0  0
    3.4415   -1.1198    0.0000 H   0  0  0  0  0  0  0  0  0  0  0  0
   -0.8453   -2.7698    0.0000 H   0  0  0  0  0  0  0  0  0  0  0  0
   -2.9887   -1.5323    0.0000 H   0  0  0  0  0  0  0  0  0  0  0  0
   -2.9887    0.1177    0.0000 H   0  0  0  0  0  0  0  0  0  0  0  0
    3.4415   -2.7698    0.0000 H   0  0  0  0  0  0  0  0  0  0  0  0
   -1.5598    0.9427    0.0000 H   0  0  0  0  0  0  0  0  0  0  0  0
   -1.5598   -2.3573    0.0000 H   0  0  0  0  0  0  0  0  0  0  0  0
    2.0126   -3.5948    0.0000 H   0  0  0  0  0  0  0  0  0  0  0  0
  1  2  2  0  0  0  0
  2  3  1  0  0  0  0
  2  4  1  0  0  0  0
  4  5  4  0  0  0  0
  4 19  4  0  0  0  0
  5  6  4  0  0  0  0
  6  7  1  0  0  0  0
  6 13  4  0  0  0  0
  7  8  4  0  0  0  0
  7 12  4  0  0  0  0
  8  9  4  0  0  0  0
  9 10  4  0  0  0  0
 10 11  4  0  0  0  0
 11 12  4  0  0  0  0
 13 14  4  0  0  0  0
 14 15  4  0  0  0  0
 14 19  4  0  0  0  0
 15 16  4  0  0  0  0
 16 17  4  0  0  0  0
 17 18  4  0  0  0  0
 18 19  4  0  0  0  0
  3 20  1  0  0  0  0
 15 21  1  0  0  0  0
 12 22  1  0  0  0  0
 16 23  1  0  0  0  0
  5 24  1  0  0  0  0
  9 25  1  0  0  0  0
 10 26  1  0  0  0  0
 17 27  1  0  0  0  0
 11 28  1  0  0  0  0
  8 29  1  0  0  0  0
 18 30  1  0  0  0  0
M  END
> <Molecule ChEMBL ID>
CHEMBL348000

> <Class(50)>
0

> <Class(80)>
0

>  <salt>
false

>  <StandardizerResult>
Tautomerize (ID: Tautomerize)
Neutralize (ID: Neutralize)
Aromatize (ID: Aromatize)
Wedge Clean (ID: Wedge Clean)
Clean 2D (ID: Clean2D)

$$$$
CHEMBL71685
  Mrv2010 08032110442D          

 39 40  0  0  1  0            999 V2000
   -2.4442    5.3094    0.0000 O   0  0  0  0  0  0  0  0  0  0  0  0
   -2.4442    4.4844    0.0000 C   0  0  0  0  0  0  0  0  0  0  0  0
   -3.1587    4.0719    0.0000 O   0  0  0  0  0  0  0  0  0  0  0  0
   -1.7297    4.0719    0.0000 C   0  0  0  0  0  0  0  0  0  0  0  0
   -1.7297    3.2469    0.0000 C   0  0  0  0  0  0  0  0  0  0  0  0
   -1.0153    2.8344    0.0000 C   0  0  0  0  0  0  0  0  0  0  0  0
   -1.0153    2.0094    0.0000 C   0  0  0  0  0  0  0  0  0  0  0  0
   -1.7297    1.5969    0.0000 C   0  0  0  0  0  0  0  0  0  0  0  0
   -1.7297    0.7719    0.0000 C   0  0  0  0  0  0  0  0  0  0  0  0
   -2.4442    0.3594    0.0000 C   0  0  0  0  0  0  0  0  0  0  0  0
   -2.4442   -0.4656    0.0000 N   0  0  0  0  0  0  0  0  0  0  0  0
   -1.7297   -0.8781    0.0000 S   0  0  0  0  0  0  0  0  0  0  0  0
   -2.1422   -1.5926    0.0000 O   0  0  0  0  0  0  0  0  0  0  0  0
   -1.3172   -0.1636    0.0000 O   0  0  0  0  0  0  0  0  0  0  0  0
   -1.0153   -1.2906    0.0000 C   0  0  0  0  0  0  0  0  0  0  0  0
   -0.3008   -0.8781    0.0000 C   0  0  0  0  0  0  0  0  0  0  0  0
    0.4137   -1.2906    0.0000 C   0  0  0  0  0  0  0  0  0  0  0  0
    0.4137   -2.1156    0.0000 C   0  0  0  0  0  0  0  0  0  0  0  0
    1.1282   -2.5281    0.0000 Cl  0  0  0  0  0  0  0  0  0  0  0  0
   -0.3008   -2.5281    0.0000 C   0  0  0  0  0  0  0  0  0  0  0  0
   -1.0153   -2.1156    0.0000 C   0  0  0  0  0  0  0  0  0  0  0  0
   -2.4442    2.0094    0.0000 C   0  0  0  0  0  0  0  0  0  0  0  0
   -2.4442    2.8344    0.0000 C   0  0  0  0  0  0  0  0  0  0  0  0
   -1.2764    0.0826    0.0000 H   0  0  0  0  0  0  0  0  0  0  0  0
   -0.9061    0.7239    0.0000 H   0  0  0  0  0  0  0  0  0  0  0  0
   -1.7297   -2.5281    0.0000 H   0  0  0  0  0  0  0  0  0  0  0  0
   -2.8975    1.0487    0.0000 H   0  0  0  0  0  0  0  0  0  0  0  0
   -3.2678    0.4074    0.0000 H   0  0  0  0  0  0  0  0  0  0  0  0
    1.1282   -0.8781    0.0000 H   0  0  0  0  0  0  0  0  0  0  0  0
   -3.8731    4.4844    0.0000 H   0  0  0  0  0  0  0  0  0  0  0  0
   -3.1587    3.2469    0.0000 H   0  0  0  0  0  0  0  0  0  0  0  0
   -3.1587   -0.8781    0.0000 H   0  0  0  0  0  0  0  0  0  0  0  0
   -0.9061    4.1199    0.0000 H   0  0  0  0  0  0  0  0  0  0  0  0
   -1.2764    4.7612    0.0000 H   0  0  0  0  0  0  0  0  0  0  0  0
   -0.3008    1.5969    0.0000 H   0  0  0  0  0  0  0  0  0  0  0  0
   -3.1587    1.5969    0.0000 H   0  0  0  0  0  0  0  0  0  0  0  0
   -0.3008   -3.3531    0.0000 H   0  0  0  0  0  0  0  0  0  0  0  0
   -0.3008    3.2469    0.0000 H   0  0  0  0  0  0  0  0  0  0  0  0
   -0.3008   -0.0531    0.0000 H   0  0  0  0  0  0  0  0  0  0  0  0
  1  2  2  0  0  0  0
  2  3  1  0  0  0  0
  2  4  1  0  0  0  0
  4  5  1  0  0  0  0
  5  6  4  0  0  0  0
  5 23  4  0  0  0  0
  6  7  4  0  0  0  0
  7  8  4  0  0  0  0
  8  9  1  0  0  0  0
  8 22  4  0  0  0  0
  9 10  1  0  0  0  0
 10 11  1  0  0  0  0
 11 12  1  0  0  0  0
 12 13  2  0  0  0  0
 12 14  2  0  0  0  0
 12 15  1  0  0  0  0
 15 16  4  0  0  0  0
 15 21  4  0  0  0  0
 16 17  4  0  0  0  0
 17 18  4  0  0  0  0
 18 19  1  0  0  0  0
 18 20  4  0  0  0  0
 20 21  4  0  0  0  0
 22 23  4  0  0  0  0
  9 24  1  0  0  0  0
  9 25  1  0  0  0  0
 21 26  1  0  0  0  0
 10 27  1  0  0  0  0
 10 28  1  0  0  0  0
 17 29  1  0  0  0  0
  3 30  1  0  0  0  0
 23 31  1  0  0  0  0
 11 32  1  0  0  0  0
  4 33  1  0  0  0  0
  4 34  1  0  0  0  0
  7 35  1  0  0  0  0
 22 36  1  0  0  0  0
 20 37  1  0  0  0  0
  6 38  1  0  0  0  0
 16 39  1  0  0  0  0
M  END
> <Molecule ChEMBL ID>
CHEMBL71685

> <Class(50)>
0

> <Class(80)>
0

>  <salt>
false

>  <StandardizerResult>
Tautomerize (ID: Tautomerize)
Transform (ID: Transform NO2 (1))
Aromatize (ID: Aromatize)
Wedge Clean (ID: Wedge Clean)
Clean 2D (ID: Clean2D)

$$$$
CHEMBL2107572
  Mrv2010 08032110442D          

 43 44  0  0  1  0            999 V2000
   -4.9189   -0.7674    0.0000 C   0  0  0  0  0  0  0  0  0  0  0  0
   -4.2044   -0.3549    0.0000 O   0  0  0  0  0  0  0  0  0  0  0  0
   -4.2044    0.4701    0.0000 C   0  0  0  0  0  0  0  0  0  0  0  0
   -4.9189    0.8826    0.0000 C   0  0  0  0  0  0  0  0  0  0  0  0
   -4.9189    1.7076    0.0000 C   0  0  0  0  0  0  0  0  0  0  0  0
   -4.2044    2.1201    0.0000 C   0  0  0  0  0  0  0  0  0  0  0  0
   -3.4900    1.7076    0.0000 C   0  0  0  0  0  0  0  0  0  0  0  0
   -2.7755    2.1201    0.0000 C   0  0  1  0  0  0  0  0  0  0  0  0
   -2.7755    2.9451    0.0000 C   0  0  0  0  0  0  0  0  0  0  0  0
   -2.0610    1.7076    0.0000 N   0  0  0  0  0  0  0  0  0  0  0  0
   -1.3466    2.1201    0.0000 C   0  0  0  0  0  0  0  0  0  0  0  0
   -0.6321    1.7076    0.0000 C   0  0  0  0  0  0  0  0  0  0  0  0
    0.0824    2.1201    0.0000 C   0  0  0  0  0  0  0  0  0  0  0  0
    0.7969    1.7076    0.0000 C   0  0  0  0  0  0  0  0  0  0  0  0
    1.5113    2.1201    0.0000 C   0  0  0  0  0  0  0  0  0  0  0  0
    2.2258    1.7076    0.0000 C   0  0  0  0  0  0  0  0  0  0  0  0
    2.2258    0.8826    0.0000 C   0  0  0  0  0  0  0  0  0  0  0  0
    1.5113    0.4701    0.0000 C   0  0  0  0  0  0  0  0  0  0  0  0
    0.7969    0.8826    0.0000 C   0  0  0  0  0  0  0  0  0  0  0  0
    0.0824    0.4701    0.0000 Cl  0  0  0  0  0  0  0  0  0  0  0  0
   -3.4900    0.8826    0.0000 C   0  0  0  0  0  0  0  0  0  0  0  0
   -0.4888    0.8951    0.0000 H   0  0  0  0  0  0  0  0  0  0  0  0
   -0.0001    1.1773    0.0000 H   0  0  0  0  0  0  0  0  0  0  0  0
   -1.9786    2.7316    0.0000 H   0  0  0  0  0  0  0  0  0  0  0  0
   -2.3630    3.6596    0.0000 H   0  0  0  0  0  0  0  0  0  0  0  0
   -3.3589    3.5284    0.0000 H   0  0  0  0  0  0  0  0  0  0  0  0
   -2.7755    0.4701    0.0000 H   0  0  0  0  0  0  0  0  0  0  0  0
    2.9403    0.4701    0.0000 H   0  0  0  0  0  0  0  0  0  0  0  0
    1.5113   -0.3549    0.0000 H   0  0  0  0  0  0  0  0  0  0  0  0
    2.9403    2.1201    0.0000 H   0  0  0  0  0  0  0  0  0  0  0  0
   -2.0610    0.8826    0.0000 H   0  0  0  0  0  0  0  0  0  0  0  0
   -5.3314   -0.0529    0.0000 H   0  0  0  0  0  0  0  0  0  0  0  0
   -5.6334   -1.1799    0.0000 H   0  0  0  0  0  0  0  0  0  0  0  0
   -4.5064   -1.4819    0.0000 H   0  0  0  0  0  0  0  0  0  0  0  0
   -5.6334    0.4701    0.0000 H   0  0  0  0  0  0  0  0  0  0  0  0
   -4.2044    2.9451    0.0000 H   0  0  0  0  0  0  0  0  0  0  0  0
   -3.4900    2.5326    0.0000 H   0  0  0  0  0  0  0  0  0  0  0  0
   -0.8498    2.7787    0.0000 H   0  0  0  0  0  0  0  0  0  0  0  0
   -1.3466    1.2951    0.0000 H   0  0  0  0  0  0  0  0  0  0  0  0
    1.5113    2.9451    0.0000 H   0  0  0  0  0  0  0  0  0  0  0  0
   -5.6334    2.1201    0.0000 H   0  0  0  0  0  0  0  0  0  0  0  0
    0.4526    2.8573    0.0000 H   0  0  0  0  0  0  0  0  0  0  0  0
   -0.2879    2.8573    0.0000 H   0  0  0  0  0  0  0  0  0  0  0  0
  1  2  1  0  0  0  0
  2  3  1  0  0  0  0
  3  4  4  0  0  0  0
  3 21  4  0  0  0  0
  4  5  4  0  0  0  0
  5  6  4  0  0  0  0
  6  7  4  0  0  0  0
  8  7  1  0  0  0  0
  7 21  4  0  0  0  0
  8  9  1  0  0  0  0
  8 10  1  0  0  0  0
 10 11  1  0  0  0  0
 11 12  1  0  0  0  0
 12 13  1  0  0  0  0
 13 14  1  0  0  0  0
 14 15  4  0  0  0  0
 14 19  4  0  0  0  0
 15 16  4  0  0  0  0
 16 17  4  0  0  0  0
 17 18  4  0  0  0  0
 18 19  4  0  0  0  0
 19 20  1  0  0  0  0
 12 22  1  0  0  0  0
 12 23  1  0  0  0  0
  9 24  1  0  0  0  0
  9 25  1  0  0  0  0
  9 26  1  0  0  0  0
 21 27  1  0  0  0  0
 17 28  1  0  0  0  0
 18 29  1  0  0  0  0
 16 30  1  0  0  0  0
 10 31  1  0  0  0  0
  1 32  1  0  0  0  0
  1 33  1  0  0  0  0
  1 34  1  0  0  0  0
  4 35  1  0  0  0  0
  6 36  1  0  0  0  0
  8 37  1  6  0  0  0
 11 38  1  0  0  0  0
 11 39  1  0  0  0  0
 15 40  1  0  0  0  0
  5 41  1  0  0  0  0
 13 42  1  0  0  0  0
 13 43  1  0  0  0  0
M  END
> <Molecule ChEMBL ID>
CHEMBL2107572

> <Class(50)>
0

> <Class(80)>
0

>  <salt>
true

>  <StandardizerResult>
Tautomerize (ID: Tautomerize)
Transform (ID: Transform NO2 (1))
Aromatize (ID: Aromatize)
Wedge Clean (ID: Wedge Clean)
Clean 2D (ID: Clean2D)

$$$$
CHEMBL269644
  Mrv2010 08032110442D          

 19 19  0  0  0  0            999 V2000
    0.4347    1.7005    0.0000 C   0  0  0  0  0  0  0  0  0  0  0  0
    0.4347    0.8755    0.0000 C   0  0  0  0  0  0  0  0  0  0  0  0
   -0.2798    0.4630    0.0000 O   0  0  0  0  0  0  0  0  0  0  0  0
    1.1492    0.4630    0.0000 N   0  0  0  0  0  0  0  0  0  0  0  0
    1.1492   -0.3620    0.0000 C   0  0  0  0  0  0  0  0  0  0  0  0
    1.8636   -0.7745    0.0000 C   0  0  0  0  0  0  0  0  0  0  0  0
    1.8636   -1.5995    0.0000 C   0  0  0  0  0  0  0  0  0  0  0  0
    1.1492   -2.0120    0.0000 C   0  0  0  0  0  0  0  0  0  0  0  0
    0.4347   -1.5995    0.0000 C   0  0  0  0  0  0  0  0  0  0  0  0
    0.4347   -0.7745    0.0000 C   0  0  0  0  0  0  0  0  0  0  0  0
    2.5781   -2.0120    0.0000 H   0  0  0  0  0  0  0  0  0  0  0  0
    1.8636    0.8755    0.0000 H   0  0  0  0  0  0  0  0  0  0  0  0
    2.5781   -0.3620    0.0000 H   0  0  0  0  0  0  0  0  0  0  0  0
   -0.2798   -0.3620    0.0000 H   0  0  0  0  0  0  0  0  0  0  0  0
    1.2597    1.7005    0.0000 H   0  0  0  0  0  0  0  0  0  0  0  0
    0.4347    2.5255    0.0000 H   0  0  0  0  0  0  0  0  0  0  0  0
   -0.3903    1.7005    0.0000 H   0  0  0  0  0  0  0  0  0  0  0  0
   -0.2798   -2.0120    0.0000 H   0  0  0  0  0  0  0  0  0  0  0  0
    1.1492   -2.8370    0.0000 H   0  0  0  0  0  0  0  0  0  0  0  0
  1  2  1  0  0  0  0
  2  3  2  0  0  0  0
  2  4  1  0  0  0  0
  4  5  1  0  0  0  0
  5  6  4  0  0  0  0
  5 10  4  0  0  0  0
  6  7  4  0  0  0  0
  7  8  4  0  0  0  0
  8  9  4  0  0  0  0
  9 10  4  0  0  0  0
  7 11  1  0  0  0  0
  4 12  1  0  0  0  0
  6 13  1  0  0  0  0
 10 14  1  0  0  0  0
  1 15  1  0  0  0  0
  1 16  1  0  0  0  0
  1 17  1  0  0  0  0
  9 18  1  0  0  0  0
  8 19  1  0  0  0  0
M  END
> <Molecule ChEMBL ID>
CHEMBL269644

> <Class(50)>
0

> <Class(80)>
0

>  <salt>
false

>  <StandardizerResult>
Tautomerize (ID: Tautomerize)
Neutralize (ID: Neutralize)
Aromatize (ID: Aromatize)
Wedge Clean (ID: Wedge Clean)
Clean 2D (ID: Clean2D)

$$$$
CHEMBL374632
  Mrv2010 08032110442D          

 44 47  0  0  0  0            999 V2000
   -3.8883   -1.9980    0.0000 C   0  0  0  0  0  0  0  0  0  0  0  0
   -3.1739   -1.5855    0.0000 C   0  0  0  0  0  0  0  0  0  0  0  0
   -3.1739   -0.7605    0.0000 N   0  0  0  0  0  0  0  0  0  0  0  0
   -3.8883   -0.3480    0.0000 C   0  0  0  0  0  0  0  0  0  0  0  0
   -3.8883    0.4770    0.0000 C   0  0  0  0  0  0  0  0  0  0  0  0
   -2.4594   -0.3480    0.0000 C   0  0  0  0  0  0  0  0  0  0  0  0
   -2.4594    0.4770    0.0000 C   0  0  0  0  0  0  0  0  0  0  0  0
   -1.7449    0.8895    0.0000 C   0  0  0  0  0  0  0  0  0  0  0  0
   -1.0305    0.4770    0.0000 C   0  0  0  0  0  0  0  0  0  0  0  0
   -0.3160    0.8895    0.0000 C   0  0  0  0  0  0  0  0  0  0  0  0
    0.3985    0.4770    0.0000 C   0  0  0  0  0  0  0  0  0  0  0  0
    1.1130    0.8895    0.0000 C   0  0  0  0  0  0  0  0  0  0  0  0
    1.1992    1.7100    0.0000 N   0  0  0  0  0  0  0  0  0  0  0  0
    2.0062    1.8815    0.0000 C   0  0  0  0  0  0  0  0  0  0  0  0
    2.4187    2.5960    0.0000 C   0  0  0  0  0  0  0  0  0  0  0  0
    3.2437    2.5960    0.0000 C   0  0  0  0  0  0  0  0  0  0  0  0
    3.6562    1.8815    0.0000 C   0  0  0  0  0  0  0  0  0  0  0  0
    3.2437    1.1670    0.0000 C   0  0  0  0  0  0  0  0  0  0  0  0
    2.4187    1.1670    0.0000 C   0  0  0  0  0  0  0  0  0  0  0  0
    1.8666    0.5539    0.0000 N   0  0  0  0  0  0  0  0  0  0  0  0
    0.3985   -0.3480    0.0000 C   0  0  0  0  0  0  0  0  0  0  0  0
    1.1130   -0.7605    0.0000 O   0  0  0  0  0  0  0  0  0  0  0  0
   -0.3160   -0.7605    0.0000 O   0  0  0  0  0  0  0  0  0  0  0  0
   -1.0305   -0.3480    0.0000 C   0  0  0  0  0  0  0  0  0  0  0  0
   -1.7449   -0.7605    0.0000 C   0  0  0  0  0  0  0  0  0  0  0  0
   -4.7119   -0.3960    0.0000 H   0  0  0  0  0  0  0  0  0  0  0  0
   -4.3417   -1.0373    0.0000 H   0  0  0  0  0  0  0  0  0  0  0  0
    3.6562    3.3104    0.0000 H   0  0  0  0  0  0  0  0  0  0  0  0
   -1.7449    1.7145    0.0000 H   0  0  0  0  0  0  0  0  0  0  0  0
    3.6562    0.4525    0.0000 H   0  0  0  0  0  0  0  0  0  0  0  0
    2.0382   -0.2530    0.0000 H   0  0  0  0  0  0  0  0  0  0  0  0
   -4.3008   -1.2835    0.0000 H   0  0  0  0  0  0  0  0  0  0  0  0
   -4.6028   -2.4105    0.0000 H   0  0  0  0  0  0  0  0  0  0  0  0
   -3.4758   -2.7125    0.0000 H   0  0  0  0  0  0  0  0  0  0  0  0
   -2.6729    1.2739    0.0000 H   0  0  0  0  0  0  0  0  0  0  0  0
   -0.3160    1.7145    0.0000 H   0  0  0  0  0  0  0  0  0  0  0  0
   -3.0633    0.4770    0.0000 H   0  0  0  0  0  0  0  0  0  0  0  0
   -3.8883    1.3020    0.0000 H   0  0  0  0  0  0  0  0  0  0  0  0
   -4.7133    0.4770    0.0000 H   0  0  0  0  0  0  0  0  0  0  0  0
    2.0062    3.3104    0.0000 H   0  0  0  0  0  0  0  0  0  0  0  0
    4.4812    1.8815    0.0000 H   0  0  0  0  0  0  0  0  0  0  0  0
   -2.7205   -2.2748    0.0000 H   0  0  0  0  0  0  0  0  0  0  0  0
   -2.3503   -1.6335    0.0000 H   0  0  0  0  0  0  0  0  0  0  0  0
   -1.7449   -1.5855    0.0000 H   0  0  0  0  0  0  0  0  0  0  0  0
  1  2  1  0  0  0  0
  2  3  1  0  0  0  0
  3  4  1  0  0  0  0
  3  6  1  0  0  0  0
  4  5  1  0  0  0  0
  6  7  4  0  0  0  0
  6 25  4  0  0  0  0
  7  8  4  0  0  0  0
  8  9  4  0  0  0  0
  9 10  1  0  0  0  0
  9 24  4  0  0  0  0
 10 11  2  0  0  0  0
 11 12  1  0  0  0  0
 11 21  1  0  0  0  0
 12 13  4  0  0  0  0
 12 20  4  0  0  0  0
 13 14  4  0  0  0  0
 14 15  4  0  0  0  0
 14 19  4  0  0  0  0
 15 16  4  0  0  0  0
 16 17  4  0  0  0  0
 17 18  4  0  0  0  0
 18 19  4  0  0  0  0
 19 20  4  0  0  0  0
 21 22  2  0  0  0  0
 21 23  1  0  0  0  0
 23 24  1  0  0  0  0
 24 25  4  0  0  0  0
  4 26  1  0  0  0  0
  4 27  1  0  0  0  0
 16 28  1  0  0  0  0
  8 29  1  0  0  0  0
 18 30  1  0  0  0  0
 20 31  1  0  0  0  0
  1 32  1  0  0  0  0
  1 33  1  0  0  0  0
  1 34  1  0  0  0  0
  7 35  1  0  0  0  0
 10 36  1  0  0  0  0
  5 37  1  0  0  0  0
  5 38  1  0  0  0  0
  5 39  1  0  0  0  0
 15 40  1  0  0  0  0
 17 41  1  0  0  0  0
  2 42  1  0  0  0  0
  2 43  1  0  0  0  0
 25 44  1  0  0  0  0
M  END
> <Molecule ChEMBL ID>
CHEMBL374632

> <Class(50)>
0

> <Class(80)>
0

>  <salt>
false

>  <StandardizerResult>
Tautomerize (ID: Tautomerize)
Neutralize (ID: Neutralize)
Aromatize (ID: Aromatize)
Wedge Clean (ID: Wedge Clean)
Clean 2D (ID: Clean2D)

$$$$
CHEMBL3903492
  Mrv2010 08032110442D          

 41 44  0  0  1  0            999 V2000
   -4.0938    0.8641    0.0000 C   0  0  0  0  0  0  0  0  0  0  0  0
   -3.8389    1.6487    0.0000 C   0  0  0  0  0  0  0  0  0  0  0  0
   -4.3238    2.3162    0.0000 N   0  0  0  0  0  0  0  0  0  0  0  0
   -3.8389    2.9836    0.0000 N   0  0  0  0  0  0  0  0  0  0  0  0
   -3.0543    2.7287    0.0000 C   0  0  0  0  0  0  0  0  0  0  0  0
   -2.3398    3.1412    0.0000 N   0  0  0  0  0  0  0  0  0  0  0  0
   -1.6253    2.7287    0.0000 C   0  0  0  0  0  0  0  0  0  0  0  0
   -1.6253    1.9037    0.0000 C   0  0  0  0  0  0  0  0  0  0  0  0
   -0.9109    1.4912    0.0000 C   0  0  0  0  0  0  0  0  0  0  0  0
   -0.9109    0.6662    0.0000 O   0  0  0  0  0  0  0  0  0  0  0  0
   -0.1964    1.9037    0.0000 N   0  0  0  0  0  0  0  0  0  0  0  0
   -0.1102    2.7241    0.0000 C   0  0  0  0  0  0  0  0  0  0  0  0
    0.6968    2.8957    0.0000 C   0  0  0  0  0  0  0  0  0  0  0  0
    1.1093    2.1812    0.0000 C   0  0  0  0  0  0  0  0  0  0  0  0
    0.5573    1.5681    0.0000 C   0  0  0  0  0  0  0  0  0  0  0  0
    0.7288    0.7611    0.0000 C   0  0  0  0  0  0  0  0  0  0  0  0
    1.5134    0.5062    0.0000 C   0  0  0  0  0  0  0  0  0  0  0  0
    1.6850   -0.3008    0.0000 C   0  0  0  0  0  0  0  0  0  0  0  0
    1.0719   -0.8528    0.0000 C   0  0  0  0  0  0  0  0  0  0  0  0
    1.2434   -1.6598    0.0000 Cl  0  0  0  0  0  0  0  0  0  0  0  0
    0.2872   -0.5979    0.0000 C   0  0  0  0  0  0  0  0  0  0  0  0
    0.1157    0.2091    0.0000 C   0  0  0  0  0  0  0  0  0  0  0  0
   -2.3398    1.4912    0.0000 C   0  0  0  0  0  0  0  0  0  0  0  0
   -3.0543    1.9037    0.0000 C   0  0  0  0  0  0  0  0  0  0  0  0
    1.7933    1.7199    0.0000 H   0  0  0  0  0  0  0  0  0  0  0  0
    1.8742    2.4902    0.0000 H   0  0  0  0  0  0  0  0  0  0  0  0
    2.1265    1.0582    0.0000 H   0  0  0  0  0  0  0  0  0  0  0  0
   -4.8785    1.1190    0.0000 H   0  0  0  0  0  0  0  0  0  0  0  0
   -4.3488    0.0795    0.0000 H   0  0  0  0  0  0  0  0  0  0  0  0
   -3.3092    0.6092    0.0000 H   0  0  0  0  0  0  0  0  0  0  0  0
   -0.3259   -1.1499    0.0000 H   0  0  0  0  0  0  0  0  0  0  0  0
   -0.0839    1.0489    0.0000 H   0  0  0  0  0  0  0  0  0  0  0  0
   -0.9109    3.1412    0.0000 H   0  0  0  0  0  0  0  0  0  0  0  0
    2.4696   -0.5557    0.0000 H   0  0  0  0  0  0  0  0  0  0  0  0
    1.4872    3.1322    0.0000 H   0  0  0  0  0  0  0  0  0  0  0  0
    1.1035    3.6135    0.0000 H   0  0  0  0  0  0  0  0  0  0  0  0
   -5.1488    2.3162    0.0000 H   0  0  0  0  0  0  0  0  0  0  0  0
   -2.3398    0.6662    0.0000 H   0  0  0  0  0  0  0  0  0  0  0  0
    0.0012    3.5416    0.0000 H   0  0  0  0  0  0  0  0  0  0  0  0
   -0.8369    2.3337    0.0000 H   0  0  0  0  0  0  0  0  0  0  0  0
   -0.6892    0.0280    0.0000 H   0  0  0  0  0  0  0  0  0  0  0  0
  1  2  1  0  0  0  0
  2  3  4  0  0  0  0
  2 24  4  0  0  0  0
  3  4  4  0  0  0  0
  4  5  4  0  0  0  0
  5  6  4  0  0  0  0
  5 24  4  0  0  0  0
  6  7  4  0  0  0  0
  7  8  4  0  0  0  0
  8  9  1  0  0  0  0
  8 23  4  0  0  0  0
  9 10  2  0  0  0  0
  9 11  1  0  0  0  0
 11 12  1  0  0  0  0
 11 15  1  0  0  0  0
 12 13  1  0  0  0  0
 13 14  1  0  0  0  0
 14 15  1  0  0  0  0
 15 16  1  0  0  0  0
 16 17  4  0  0  0  0
 16 22  4  0  0  0  0
 17 18  4  0  0  0  0
 18 19  4  0  0  0  0
 19 20  1  0  0  0  0
 19 21  4  0  0  0  0
 21 22  4  0  0  0  0
 23 24  4  0  0  0  0
 14 25  1  0  0  0  0
 14 26  1  0  0  0  0
 17 27  1  0  0  0  0
  1 28  1  0  0  0  0
  1 29  1  0  0  0  0
  1 30  1  0  0  0  0
 21 31  1  0  0  0  0
 15 32  1  0  0  0  0
  7 33  1  0  0  0  0
 18 34  1  0  0  0  0
 13 35  1  0  0  0  0
 13 36  1  0  0  0  0
  3 37  1  0  0  0  0
 23 38  1  0  0  0  0
 12 39  1  0  0  0  0
 12 40  1  0  0  0  0
 22 41  1  0  0  0  0
M  END
> <Molecule ChEMBL ID>
CHEMBL3903492

> <Class(50)>
0

> <Class(80)>
0

>  <salt>
false

>  <StandardizerResult>
Tautomerize (ID: Tautomerize)
Transform (ID: Transform NO2 (1))
Aromatize (ID: Aromatize)
Wedge Clean (ID: Wedge Clean)
Clean 2D (ID: Clean2D)

$$$$
CHEMBL1957037
  Mrv2010 08032110442D          

 32 34  0  0  1  0            999 V2000
   -3.0889   -2.1263    0.0000 O   0  0  0  0  0  0  0  0  0  0  0  0
   -2.3744   -1.7138    0.0000 C   0  0  0  0  0  0  0  0  0  0  0  0
   -2.3744   -0.8888    0.0000 C   0  0  0  0  0  0  0  0  0  0  0  0
   -1.6600   -0.4763    0.0000 C   0  0  0  0  0  0  0  0  0  0  0  0
   -0.9455   -0.8888    0.0000 C   0  0  0  0  0  0  0  0  0  0  0  0
   -0.2310   -0.4763    0.0000 C   0  0  1  0  0  0  0  0  0  0  0  0
   -0.2310    0.3487    0.0000 C   0  0  0  0  0  0  0  0  0  0  0  0
    0.4834    0.7612    0.0000 O   0  0  0  0  0  0  0  0  0  0  0  0
    1.1979    0.3487    0.0000 C   0  0  0  0  0  0  0  0  0  0  0  0
    1.9124    0.7612    0.0000 C   0  0  0  0  0  0  0  0  0  0  0  0
    2.6269    0.3487    0.0000 C   0  0  0  0  0  0  0  0  0  0  0  0
    3.3413    0.7612    0.0000 O   0  0  0  0  0  0  0  0  0  0  0  0
    2.6269   -0.4763    0.0000 C   0  0  0  0  0  0  0  0  0  0  0  0
    1.9124   -0.8888    0.0000 C   0  0  0  0  0  0  0  0  0  0  0  0
    1.1979   -0.4763    0.0000 C   0  0  0  0  0  0  0  0  0  0  0  0
    0.4834   -0.8888    0.0000 C   0  0  0  0  0  0  0  0  0  0  0  0
   -0.9455   -1.7138    0.0000 C   0  0  0  0  0  0  0  0  0  0  0  0
   -1.6600   -2.1263    0.0000 C   0  0  0  0  0  0  0  0  0  0  0  0
   -1.6600    0.3487    0.0000 H   0  0  0  0  0  0  0  0  0  0  0  0
   -0.2310   -1.3013    0.0000 H   0  0  0  0  0  0  0  0  0  0  0  0
    1.9124    1.5862    0.0000 H   0  0  0  0  0  0  0  0  0  0  0  0
   -0.5330   -2.4283    0.0000 H   0  0  0  0  0  0  0  0  0  0  0  0
    4.0558    0.3487    0.0000 H   0  0  0  0  0  0  0  0  0  0  0  0
   -1.6600   -2.9513    0.0000 H   0  0  0  0  0  0  0  0  0  0  0  0
    1.9124   -1.7138    0.0000 H   0  0  0  0  0  0  0  0  0  0  0  0
    3.3413   -0.8888    0.0000 H   0  0  0  0  0  0  0  0  0  0  0  0
    0.6267   -1.7013    0.0000 H   0  0  0  0  0  0  0  0  0  0  0  0
    1.1154   -1.4191    0.0000 H   0  0  0  0  0  0  0  0  0  0  0  0
   -3.0889   -0.4763    0.0000 H   0  0  0  0  0  0  0  0  0  0  0  0
   -0.6844    1.0380    0.0000 H   0  0  0  0  0  0  0  0  0  0  0  0
   -1.0546    0.3967    0.0000 H   0  0  0  0  0  0  0  0  0  0  0  0
   -3.8034   -1.7138    0.0000 H   0  0  0  0  0  0  0  0  0  0  0  0
  1  2  1  0  0  0  0
  2  3  4  0  0  0  0
  2 18  4  0  0  0  0
  3  4  4  0  0  0  0
  4  5  4  0  0  0  0
  6  5  1  0  0  0  0
  5 17  4  0  0  0  0
  6  7  1  0  0  0  0
  6 16  1  0  0  0  0
  7  8  1  0  0  0  0
  8  9  1  0  0  0  0
  9 10  4  0  0  0  0
  9 15  4  0  0  0  0
 10 11  4  0  0  0  0
 11 12  1  0  0  0  0
 11 13  4  0  0  0  0
 13 14  4  0  0  0  0
 14 15  4  0  0  0  0
 15 16  1  0  0  0  0
 17 18  4  0  0  0  0
  4 19  1  0  0  0  0
  6 20  1  6  0  0  0
 10 21  1  0  0  0  0
 17 22  1  0  0  0  0
 12 23  1  0  0  0  0
 18 24  1  0  0  0  0
 14 25  1  0  0  0  0
 13 26  1  0  0  0  0
 16 27  1  0  0  0  0
 16 28  1  0  0  0  0
  3 29  1  0  0  0  0
  7 30  1  0  0  0  0
  7 31  1  0  0  0  0
  1 32  1  0  0  0  0
M  END
> <Molecule ChEMBL ID>
CHEMBL1957037

> <Class(50)>
0

> <Class(80)>
0

>  <salt>
false

>  <StandardizerResult>
Tautomerize (ID: Tautomerize)
Transform (ID: Transform NO2 (1))
Aromatize (ID: Aromatize)
Wedge Clean (ID: Wedge Clean)
Clean 2D (ID: Clean2D)

$$$$
CHEMBL24850
  Mrv2010 08032110442D          

 33 35  0  0  0  0            999 V2000
   -2.7628   -1.2429    0.0000 O   0  0  0  0  0  0  0  0  0  0  0  0
   -2.3503   -0.5284    0.0000 C   0  0  0  0  0  0  0  0  0  0  0  0
   -2.7628    0.1860    0.0000 O   0  0  0  0  0  0  0  0  0  0  0  0
   -1.5253   -0.5284    0.0000 C   0  0  0  0  0  0  0  0  0  0  0  0
   -1.0404    0.1390    0.0000 C   0  0  0  0  0  0  0  0  0  0  0  0
   -0.2557   -0.1159    0.0000 C   0  0  0  0  0  0  0  0  0  0  0  0
    0.4587    0.2966    0.0000 C   0  0  0  0  0  0  0  0  0  0  0  0
    1.1732   -0.1159    0.0000 C   0  0  0  0  0  0  0  0  0  0  0  0
    1.8877    0.2966    0.0000 O   0  0  0  0  0  0  0  0  0  0  0  0
    1.8877    1.1216    0.0000 C   0  0  0  0  0  0  0  0  0  0  0  0
    2.6021    1.5341    0.0000 C   0  0  0  0  0  0  0  0  0  0  0  0
    2.6021    2.3591    0.0000 C   0  0  0  0  0  0  0  0  0  0  0  0
    3.3166    2.7716    0.0000 C   0  0  0  0  0  0  0  0  0  0  0  0
    4.0311    2.3591    0.0000 C   0  0  0  0  0  0  0  0  0  0  0  0
    4.0311    1.5341    0.0000 C   0  0  0  0  0  0  0  0  0  0  0  0
    3.3166    1.1216    0.0000 C   0  0  0  0  0  0  0  0  0  0  0  0
    1.1732   -0.9409    0.0000 C   0  0  0  0  0  0  0  0  0  0  0  0
    0.4587   -1.3534    0.0000 C   0  0  0  0  0  0  0  0  0  0  0  0
   -0.2557   -0.9409    0.0000 C   0  0  0  0  0  0  0  0  0  0  0  0
   -1.0404   -1.1959    0.0000 N   0  0  0  0  0  0  0  0  0  0  0  0
   -1.2953   -1.9805    0.0000 H   0  0  0  0  0  0  0  0  0  0  0  0
    1.4343    1.8108    0.0000 H   0  0  0  0  0  0  0  0  0  0  0  0
    1.0641    1.1695    0.0000 H   0  0  0  0  0  0  0  0  0  0  0  0
    4.7455    2.7716    0.0000 H   0  0  0  0  0  0  0  0  0  0  0  0
    1.8877   -1.3534    0.0000 H   0  0  0  0  0  0  0  0  0  0  0  0
   -2.3503    0.9005    0.0000 H   0  0  0  0  0  0  0  0  0  0  0  0
    3.3166    3.5966    0.0000 H   0  0  0  0  0  0  0  0  0  0  0  0
    0.4587   -2.1784    0.0000 H   0  0  0  0  0  0  0  0  0  0  0  0
    1.8877    2.7716    0.0000 H   0  0  0  0  0  0  0  0  0  0  0  0
    0.4587    1.1216    0.0000 H   0  0  0  0  0  0  0  0  0  0  0  0
    3.3166    0.2966    0.0000 H   0  0  0  0  0  0  0  0  0  0  0  0
   -1.2953    0.9236    0.0000 H   0  0  0  0  0  0  0  0  0  0  0  0
    4.7455    1.1216    0.0000 H   0  0  0  0  0  0  0  0  0  0  0  0
  1  2  2  0  0  0  0
  2  3  1  0  0  0  0
  2  4  1  0  0  0  0
  4  5  4  0  0  0  0
  4 20  4  0  0  0  0
  5  6  4  0  0  0  0
  6  7  4  0  0  0  0
  6 19  4  0  0  0  0
  7  8  4  0  0  0  0
  8  9  1  0  0  0  0
  8 17  4  0  0  0  0
  9 10  1  0  0  0  0
 10 11  1  0  0  0  0
 11 12  4  0  0  0  0
 11 16  4  0  0  0  0
 12 13  4  0  0  0  0
 13 14  4  0  0  0  0
 14 15  4  0  0  0  0
 15 16  4  0  0  0  0
 17 18  4  0  0  0  0
 18 19  4  0  0  0  0
 19 20  4  0  0  0  0
 20 21  1  0  0  0  0
 10 22  1  0  0  0  0
 10 23  1  0  0  0  0
 14 24  1  0  0  0  0
 17 25  1  0  0  0  0
  3 26  1  0  0  0  0
 13 27  1  0  0  0  0
 18 28  1  0  0  0  0
 12 29  1  0  0  0  0
  7 30  1  0  0  0  0
 16 31  1  0  0  0  0
  5 32  1  0  0  0  0
 15 33  1  0  0  0  0
M  END
> <Molecule ChEMBL ID>
CHEMBL24850

> <Class(50)>
0

> <Class(80)>
0

>  <salt>
false

>  <StandardizerResult>
Tautomerize (ID: Tautomerize)
Neutralize (ID: Neutralize)
Aromatize (ID: Aromatize)
Wedge Clean (ID: Wedge Clean)
Clean 2D (ID: Clean2D)

$$$$
CHEMBL375596
  Mrv2010 08032110442D          

 46 48  0  0  0  0            999 V2000
    3.5030    4.4387    0.0000 C   0  0  0  0  0  0  0  0  0  0  0  0
    3.5030    3.6137    0.0000 C   0  0  0  0  0  0  0  0  0  0  0  0
    4.2175    3.2012    0.0000 C   0  0  0  0  0  0  0  0  0  0  0  0
    4.2175    2.3762    0.0000 C   0  0  0  0  0  0  0  0  0  0  0  0
    3.5030    1.9637    0.0000 C   0  0  0  0  0  0  0  0  0  0  0  0
    2.7885    2.3762    0.0000 C   0  0  0  0  0  0  0  0  0  0  0  0
    2.0740    1.9637    0.0000 N   0  0  0  0  0  0  0  0  0  0  0  0
    1.3596    2.3762    0.0000 C   0  0  0  0  0  0  0  0  0  0  0  0
    1.3596    3.2012    0.0000 O   0  0  0  0  0  0  0  0  0  0  0  0
    0.6451    1.9637    0.0000 C   0  0  0  0  0  0  0  0  0  0  0  0
   -0.0694    2.3762    0.0000 N   0  0  0  0  0  0  0  0  0  0  0  0
   -0.7838    1.9637    0.0000 C   0  0  0  0  0  0  0  0  0  0  0  0
   -1.4983    2.3762    0.0000 C   0  0  0  0  0  0  0  0  0  0  0  0
   -1.4983    3.2012    0.0000 C   0  0  0  0  0  0  0  0  0  0  0  0
   -2.2128    3.6137    0.0000 C   0  0  0  0  0  0  0  0  0  0  0  0
   -2.9273    3.2012    0.0000 C   0  0  0  0  0  0  0  0  0  0  0  0
   -3.6417    3.6137    0.0000 C   0  0  0  0  0  0  0  0  0  0  0  0
   -3.6417    4.4387    0.0000 C   0  0  0  0  0  0  0  0  0  0  0  0
   -2.9273    4.8512    0.0000 C   0  0  0  0  0  0  0  0  0  0  0  0
   -2.2128    4.4387    0.0000 N   0  0  0  0  0  0  0  0  0  0  0  0
   -0.7838    3.6137    0.0000 C   0  0  0  0  0  0  0  0  0  0  0  0
   -0.0694    3.2012    0.0000 C   0  0  0  0  0  0  0  0  0  0  0  0
    2.7885    3.2012    0.0000 C   0  0  0  0  0  0  0  0  0  0  0  0
   -1.4983    4.0262    0.0000 H   0  0  0  0  0  0  0  0  0  0  0  0
    0.2748    1.2264    0.0000 H   0  0  0  0  0  0  0  0  0  0  0  0
    1.0154    1.2264    0.0000 H   0  0  0  0  0  0  0  0  0  0  0  0
   -0.1519    4.1440    0.0000 H   0  0  0  0  0  0  0  0  0  0  0  0
   -0.6406    4.4262    0.0000 H   0  0  0  0  0  0  0  0  0  0  0  0
   -4.3562    4.8512    0.0000 H   0  0  0  0  0  0  0  0  0  0  0  0
    0.7150    2.9455    0.0000 H   0  0  0  0  0  0  0  0  0  0  0  0
    0.6897    3.5243    0.0000 H   0  0  0  0  0  0  0  0  0  0  0  0
   -4.3562    3.2012    0.0000 H   0  0  0  0  0  0  0  0  0  0  0  0
   -2.3219    2.3282    0.0000 H   0  0  0  0  0  0  0  0  0  0  0  0
   -1.9517    1.6869    0.0000 H   0  0  0  0  0  0  0  0  0  0  0  0
    4.9319    1.9637    0.0000 H   0  0  0  0  0  0  0  0  0  0  0  0
    3.5030    1.1387    0.0000 H   0  0  0  0  0  0  0  0  0  0  0  0
    2.0740    1.1387    0.0000 H   0  0  0  0  0  0  0  0  0  0  0  0
    2.0740    3.6137    0.0000 H   0  0  0  0  0  0  0  0  0  0  0  0
    4.9319    3.6137    0.0000 H   0  0  0  0  0  0  0  0  0  0  0  0
   -1.1541    1.2264    0.0000 H   0  0  0  0  0  0  0  0  0  0  0  0
   -0.4136    1.2264    0.0000 H   0  0  0  0  0  0  0  0  0  0  0  0
   -2.9273    5.6762    0.0000 H   0  0  0  0  0  0  0  0  0  0  0  0
    4.3280    4.4387    0.0000 H   0  0  0  0  0  0  0  0  0  0  0  0
    3.5030    5.2637    0.0000 H   0  0  0  0  0  0  0  0  0  0  0  0
    2.6780    4.4387    0.0000 H   0  0  0  0  0  0  0  0  0  0  0  0
   -2.9273    2.3762    0.0000 H   0  0  0  0  0  0  0  0  0  0  0  0
  1  2  1  0  0  0  0
  2  3  4  0  0  0  0
  2 23  4  0  0  0  0
  3  4  4  0  0  0  0
  4  5  4  0  0  0  0
  5  6  4  0  0  0  0
  6  7  1  0  0  0  0
  6 23  4  0  0  0  0
  7  8  1  0  0  0  0
  8  9  2  0  0  0  0
  8 10  1  0  0  0  0
 10 11  1  0  0  0  0
 11 12  1  0  0  0  0
 11 22  1  0  0  0  0
 12 13  1  0  0  0  0
 13 14  1  0  0  0  0
 14 15  1  0  0  0  0
 14 21  1  0  0  0  0
 15 16  4  0  0  0  0
 15 20  4  0  0  0  0
 16 17  4  0  0  0  0
 17 18  4  0  0  0  0
 18 19  4  0  0  0  0
 19 20  4  0  0  0  0
 21 22  1  0  0  0  0
 14 24  1  0  0  0  0
 10 25  1  0  0  0  0
 10 26  1  0  0  0  0
 21 27  1  0  0  0  0
 21 28  1  0  0  0  0
 18 29  1  0  0  0  0
 22 30  1  0  0  0  0
 22 31  1  0  0  0  0
 17 32  1  0  0  0  0
 13 33  1  0  0  0  0
 13 34  1  0  0  0  0
  4 35  1  0  0  0  0
  5 36  1  0  0  0  0
  7 37  1  0  0  0  0
 23 38  1  0  0  0  0
  3 39  1  0  0  0  0
 12 40  1  0  0  0  0
 12 41  1  0  0  0  0
 19 42  1  0  0  0  0
  1 43  1  0  0  0  0
  1 44  1  0  0  0  0
  1 45  1  0  0  0  0
 16 46  1  0  0  0  0
M  END
> <Molecule ChEMBL ID>
CHEMBL375596

> <Class(50)>
0

> <Class(80)>
0

>  <salt>
false

>  <StandardizerResult>
Tautomerize (ID: Tautomerize)
Neutralize (ID: Neutralize)
Aromatize (ID: Aromatize)
Wedge Clean (ID: Wedge Clean)
Clean 2D (ID: Clean2D)

$$$$
CHEMBL1611192
  Mrv2010 08032110442D          

 21 21  0  0  1  0            999 V2000
    1.5412    1.1791    0.0000 N   0  0  0  0  0  0  0  0  0  0  0  0
    0.8268    0.7666    0.0000 C   0  0  1  0  0  0  0  0  0  0  0  0
    0.1123    1.1791    0.0000 C   0  0  0  0  0  0  0  0  0  0  0  0
    0.1123    2.0041    0.0000 O   0  0  0  0  0  0  0  0  0  0  0  0
   -0.6022    0.7666    0.0000 O   0  0  0  0  0  0  0  0  0  0  0  0
    0.8268   -0.0584    0.0000 C   0  0  0  0  0  0  0  0  0  0  0  0
    1.5412   -0.4709    0.0000 C   0  0  0  0  0  0  0  0  0  0  0  0
    1.5412   -1.2959    0.0000 C   0  0  0  0  0  0  0  0  0  0  0  0
    2.2557   -1.7084    0.0000 O   0  0  0  0  0  0  0  0  0  0  0  0
    0.8268   -1.7084    0.0000 C   0  0  0  0  0  0  0  0  0  0  0  0
    0.1123   -1.2959    0.0000 C   0  0  0  0  0  0  0  0  0  0  0  0
    0.1123   -0.4709    0.0000 C   0  0  0  0  0  0  0  0  0  0  0  0
   -0.6022   -0.0584    0.0000 Cl  0  0  0  0  0  0  0  0  0  0  0  0
    0.8268    1.5916    0.0000 H   0  0  0  0  0  0  0  0  0  0  0  0
    0.8268   -2.5334    0.0000 H   0  0  0  0  0  0  0  0  0  0  0  0
    2.2557    0.7666    0.0000 H   0  0  0  0  0  0  0  0  0  0  0  0
    1.5412    2.0041    0.0000 H   0  0  0  0  0  0  0  0  0  0  0  0
   -1.3167    1.1791    0.0000 H   0  0  0  0  0  0  0  0  0  0  0  0
    2.2557   -0.0584    0.0000 H   0  0  0  0  0  0  0  0  0  0  0  0
    2.2557   -2.5334    0.0000 H   0  0  0  0  0  0  0  0  0  0  0  0
   -0.6022   -1.7084    0.0000 H   0  0  0  0  0  0  0  0  0  0  0  0
  2  1  1  0  0  0  0
  2  3  1  0  0  0  0
  2  6  1  0  0  0  0
  3  4  2  0  0  0  0
  3  5  1  0  0  0  0
  6  7  4  0  0  0  0
  6 12  4  0  0  0  0
  7  8  4  0  0  0  0
  8  9  1  0  0  0  0
  8 10  4  0  0  0  0
 10 11  4  0  0  0  0
 11 12  4  0  0  0  0
 12 13  1  0  0  0  0
  2 14  1  1  0  0  0
 10 15  1  0  0  0  0
  1 16  1  0  0  0  0
  1 17  1  0  0  0  0
  5 18  1  0  0  0  0
  7 19  1  0  0  0  0
  9 20  1  0  0  0  0
 11 21  1  0  0  0  0
M  END
> <Molecule ChEMBL ID>
CHEMBL1611192

> <Class(50)>
0

> <Class(80)>
0

>  <salt>
false

>  <StandardizerResult>
Tautomerize (ID: Tautomerize)
Transform (ID: Transform NO2 (1))
Aromatize (ID: Aromatize)
Wedge Clean (ID: Wedge Clean)
Clean 2D (ID: Clean2D)

$$$$
CHEMBL216097
  Mrv2010 08032110442D          

 33 35  0  0  1  0            999 V2000
   -0.1981   -0.9505    0.0000 C   0  0  0  0  0  0  0  0  0  0  0  0
    0.0568   -1.7351    0.0000 C   0  0  0  0  0  0  0  0  0  0  0  0
    0.8414   -1.9901    0.0000 C   0  0  0  0  0  0  0  0  0  0  0  0
    1.5559   -1.5776    0.0000 C   0  0  0  0  0  0  0  0  0  0  0  0
    2.2704   -1.9901    0.0000 C   0  0  0  0  0  0  0  0  0  0  0  0
    2.2704   -2.8151    0.0000 C   0  0  0  0  0  0  0  0  0  0  0  0
    1.5559   -3.2276    0.0000 C   0  0  0  0  0  0  0  0  0  0  0  0
    0.8414   -2.8151    0.0000 C   0  0  0  0  0  0  0  0  0  0  0  0
    0.0568   -3.0700    0.0000 C   0  0  0  0  0  0  0  0  0  0  0  0
   -0.4281   -2.4026    0.0000 N   0  0  0  0  0  0  0  0  0  0  0  0
   -1.2531   -2.4026    0.0000 C   0  0  0  0  0  0  0  0  0  0  0  0
   -1.6656   -1.6881    0.0000 C   0  0  0  0  0  0  0  0  0  0  0  0
   -2.4861   -1.6019    0.0000 N   0  0  0  0  0  0  0  0  0  0  0  0
   -2.6576   -0.7949    0.0000 C   0  0  0  0  0  0  0  0  0  0  0  0
   -1.9432   -0.3824    0.0000 C   0  0  0  0  0  0  0  0  0  0  0  0
   -1.3301   -0.9344    0.0000 N   0  0  0  0  0  0  0  0  0  0  0  0
   -1.9424   -2.8559    0.0000 H   0  0  0  0  0  0  0  0  0  0  0  0
   -1.3011   -3.2262    0.0000 H   0  0  0  0  0  0  0  0  0  0  0  0
   -0.8000   -0.3023    0.0000 H   0  0  0  0  0  0  0  0  0  0  0  0
    1.5559   -0.7526    0.0000 H   0  0  0  0  0  0  0  0  0  0  0  0
   -0.7581   -1.6061    0.0000 H   0  0  0  0  0  0  0  0  0  0  0  0
   -3.1656   -0.1448    0.0000 H   0  0  0  0  0  0  0  0  0  0  0  0
   -3.4806   -0.8524    0.0000 H   0  0  0  0  0  0  0  0  0  0  0  0
    2.9848   -3.2276    0.0000 H   0  0  0  0  0  0  0  0  0  0  0  0
    0.5865   -0.6956    0.0000 H   0  0  0  0  0  0  0  0  0  0  0  0
   -0.4531   -0.1659    0.0000 H   0  0  0  0  0  0  0  0  0  0  0  0
   -0.9828   -1.2055    0.0000 H   0  0  0  0  0  0  0  0  0  0  0  0
    1.5559   -4.0526    0.0000 H   0  0  0  0  0  0  0  0  0  0  0  0
   -0.5367   -3.6431    0.0000 H   0  0  0  0  0  0  0  0  0  0  0  0
    0.2001   -3.8825    0.0000 H   0  0  0  0  0  0  0  0  0  0  0  0
   -1.4818    0.3016    0.0000 H   0  0  0  0  0  0  0  0  0  0  0  0
   -2.2522    0.3825    0.0000 H   0  0  0  0  0  0  0  0  0  0  0  0
    2.9848   -1.5776    0.0000 H   0  0  0  0  0  0  0  0  0  0  0  0
  1  2  1  0  0  0  0
  2  3  1  0  0  0  0
  2 10  1  0  0  0  0
  3  4  4  0  0  0  0
  3  8  4  0  0  0  0
  4  5  4  0  0  0  0
  5  6  4  0  0  0  0
  6  7  4  0  0  0  0
  7  8  4  0  0  0  0
  8  9  1  0  0  0  0
  9 10  1  0  0  0  0
 10 11  1  0  0  0  0
 11 12  1  0  0  0  0
 12 13  2  0  0  0  0
 12 16  1  0  0  0  0
 13 14  1  0  0  0  0
 14 15  1  0  0  0  0
 15 16  1  0  0  0  0
 11 17  1  0  0  0  0
 11 18  1  0  0  0  0
 16 19  1  0  0  0  0
  4 20  1  0  0  0  0
  2 21  1  0  0  0  0
 14 22  1  0  0  0  0
 14 23  1  0  0  0  0
  6 24  1  0  0  0  0
  1 25  1  0  0  0  0
  1 26  1  0  0  0  0
  1 27  1  0  0  0  0
  7 28  1  0  0  0  0
  9 29  1  0  0  0  0
  9 30  1  0  0  0  0
 15 31  1  0  0  0  0
 15 32  1  0  0  0  0
  5 33  1  0  0  0  0
M  END
> <Molecule ChEMBL ID>
CHEMBL216097

> <Class(50)>
0

> <Class(80)>
0

>  <salt>
false

>  <StandardizerResult>
Tautomerize (ID: Tautomerize)
Transform (ID: Transform NO2 (1))
Aromatize (ID: Aromatize)
Wedge Clean (ID: Wedge Clean)
Clean 2D (ID: Clean2D)

$$$$
CHEMBL278703
  Mrv2010 08032110442D          

 39 42  0  0  1  0            999 V2000
   -2.4156    4.1419    0.0000 O   0  0  0  0  0  0  0  0  0  0  0  0
   -1.9810    3.4406    0.0000 C   0  0  0  0  0  0  0  0  0  0  0  0
   -1.1564    3.4664    0.0000 C   0  0  0  0  0  0  0  0  0  0  0  0
   -0.7218    2.7652    0.0000 C   0  0  0  0  0  0  0  0  0  0  0  0
   -1.1118    2.0382    0.0000 C   0  0  0  0  0  0  0  0  0  0  0  0
   -0.6771    1.3369    0.0000 C   0  0  0  0  0  0  0  0  0  0  0  0
    0.1475    1.3627    0.0000 O   0  0  0  0  0  0  0  0  0  0  0  0
    0.5821    0.6614    0.0000 C   0  0  0  0  0  0  0  0  0  0  0  0
    1.4067    0.6872    0.0000 C   0  0  0  0  0  0  0  0  0  0  0  0
    1.8413   -0.0140    0.0000 C   0  0  0  0  0  0  0  0  0  0  0  0
    1.4513   -0.7410    0.0000 C   0  0  0  0  0  0  0  0  0  0  0  0
    1.8859   -1.4423    0.0000 O   0  0  0  0  0  0  0  0  0  0  0  0
    0.6267   -0.7668    0.0000 C   0  0  0  0  0  0  0  0  0  0  0  0
    0.1921   -0.0656    0.0000 C   0  0  0  0  0  0  0  0  0  0  0  0
   -0.6325   -0.0913    0.0000 C   0  0  0  0  0  0  0  0  0  0  0  0
   -1.1651   -0.7214    0.0000 C   0  0  0  0  0  0  0  0  0  0  0  0
   -1.9289   -0.4095    0.0000 C   0  0  0  0  0  0  0  0  0  0  0  0
   -1.8683    0.4133    0.0000 C   0  0  0  0  0  0  0  0  0  0  0  0
   -1.0671    0.6099    0.0000 C   0  0  0  0  0  0  0  0  0  0  0  0
   -1.9363    2.0124    0.0000 C   0  0  0  0  0  0  0  0  0  0  0  0
   -2.3710    2.7136    0.0000 C   0  0  0  0  0  0  0  0  0  0  0  0
   -0.7664    4.1934    0.0000 H   0  0  0  0  0  0  0  0  0  0  0  0
   -2.6376    1.5778    0.0000 H   0  0  0  0  0  0  0  0  0  0  0  0
    1.7967    1.4142    0.0000 H   0  0  0  0  0  0  0  0  0  0  0  0
   -2.0256    4.8689    0.0000 H   0  0  0  0  0  0  0  0  0  0  0  0
   -0.2425    0.6357    0.0000 H   0  0  0  0  0  0  0  0  0  0  0  0
    0.1028    2.7909    0.0000 H   0  0  0  0  0  0  0  0  0  0  0  0
    0.2367   -1.4938    0.0000 H   0  0  0  0  0  0  0  0  0  0  0  0
    1.4959   -2.1693    0.0000 H   0  0  0  0  0  0  0  0  0  0  0  0
   -1.5017    1.3112    0.0000 H   0  0  0  0  0  0  0  0  0  0  0  0
   -2.5424    0.8890    0.0000 H   0  0  0  0  0  0  0  0  0  0  0  0
   -2.6837    0.2872    0.0000 H   0  0  0  0  0  0  0  0  0  0  0  0
   -1.3790   -0.1539    0.0000 H   0  0  0  0  0  0  0  0  0  0  0  0
    2.6659    0.0117    0.0000 H   0  0  0  0  0  0  0  0  0  0  0  0
   -1.3677   -1.5211    0.0000 H   0  0  0  0  0  0  0  0  0  0  0  0
   -0.6154   -1.3365    0.0000 H   0  0  0  0  0  0  0  0  0  0  0  0
   -2.7521   -0.4640    0.0000 H   0  0  0  0  0  0  0  0  0  0  0  0
   -2.3440   -1.1225    0.0000 H   0  0  0  0  0  0  0  0  0  0  0  0
   -3.1956    2.6879    0.0000 H   0  0  0  0  0  0  0  0  0  0  0  0
  1  2  1  0  0  0  0
  2  3  4  0  0  0  0
  2 21  4  0  0  0  0
  3  4  4  0  0  0  0
  4  5  4  0  0  0  0
  5  6  1  0  0  0  0
  5 20  4  0  0  0  0
  6  7  1  0  0  0  0
  6 19  1  0  0  0  0
  7  8  1  0  0  0  0
  8  9  4  0  0  0  0
  8 14  4  0  0  0  0
  9 10  4  0  0  0  0
 10 11  4  0  0  0  0
 11 12  1  0  0  0  0
 11 13  4  0  0  0  0
 13 14  4  0  0  0  0
 14 15  1  0  0  0  0
 15 16  1  0  0  0  0
 15 19  1  0  0  0  0
 16 17  1  0  0  0  0
 17 18  1  0  0  0  0
 18 19  1  0  0  0  0
 20 21  4  0  0  0  0
  3 22  1  0  0  0  0
 20 23  1  0  0  0  0
  9 24  1  0  0  0  0
  1 25  1  0  0  0  0
 15 26  1  0  0  0  0
  4 27  1  0  0  0  0
 13 28  1  0  0  0  0
 12 29  1  0  0  0  0
  6 30  1  0  0  0  0
 18 31  1  0  0  0  0
 18 32  1  0  0  0  0
 19 33  1  0  0  0  0
 10 34  1  0  0  0  0
 16 35  1  0  0  0  0
 16 36  1  0  0  0  0
 17 37  1  0  0  0  0
 17 38  1  0  0  0  0
 21 39  1  0  0  0  0
M  END
> <Molecule ChEMBL ID>
CHEMBL278703

> <Class(50)>
0

> <Class(80)>
0

>  <salt>
false

>  <StandardizerResult>
Tautomerize (ID: Tautomerize)
Transform (ID: Transform NO2 (1))
Aromatize (ID: Aromatize)
Wedge Clean (ID: Wedge Clean)
Clean 2D (ID: Clean2D)

$$$$
CHEMBL1409793
  Mrv2010 08032110442D          

 18 19  0  0  0  0            999 V2000
   -0.7145   -0.9355    0.0000 O   0  0  0  0  0  0  0  0  0  0  0  0
   -0.7145   -0.1105    0.0000 C   0  0  0  0  0  0  0  0  0  0  0  0
   -1.4289    0.3020    0.0000 C   0  0  0  0  0  0  0  0  0  0  0  0
   -1.4289    1.1270    0.0000 C   0  0  0  0  0  0  0  0  0  0  0  0
   -0.7145    1.5395    0.0000 N   0  0  0  0  0  0  0  0  0  0  0  0
    0.0000    1.1270    0.0000 C   0  0  0  0  0  0  0  0  0  0  0  0
    0.7145    1.5395    0.0000 C   0  0  0  0  0  0  0  0  0  0  0  0
    1.4289    1.1270    0.0000 C   0  0  0  0  0  0  0  0  0  0  0  0
    2.1434    1.5395    0.0000 Cl  0  0  0  0  0  0  0  0  0  0  0  0
    1.4289    0.3020    0.0000 C   0  0  0  0  0  0  0  0  0  0  0  0
    0.7145   -0.1105    0.0000 C   0  0  0  0  0  0  0  0  0  0  0  0
    0.0000    0.3020    0.0000 C   0  0  0  0  0  0  0  0  0  0  0  0
   -0.7145    2.3645    0.0000 H   0  0  0  0  0  0  0  0  0  0  0  0
   -2.1434   -0.1105    0.0000 H   0  0  0  0  0  0  0  0  0  0  0  0
    0.7145   -0.9355    0.0000 H   0  0  0  0  0  0  0  0  0  0  0  0
   -2.1434    1.5395    0.0000 H   0  0  0  0  0  0  0  0  0  0  0  0
    0.7145    2.3645    0.0000 H   0  0  0  0  0  0  0  0  0  0  0  0
    2.1434   -0.1105    0.0000 H   0  0  0  0  0  0  0  0  0  0  0  0
  1  2  2  0  0  0  0
  2  3  1  0  0  0  0
  2 12  1  0  0  0  0
  3  4  2  0  0  0  0
  4  5  1  0  0  0  0
  5  6  1  0  0  0  0
  6  7  4  0  0  0  0
  6 12  4  0  0  0  0
  7  8  4  0  0  0  0
  8  9  1  0  0  0  0
  8 10  4  0  0  0  0
 10 11  4  0  0  0  0
 11 12  4  0  0  0  0
  5 13  1  0  0  0  0
  3 14  1  0  0  0  0
 11 15  1  0  0  0  0
  4 16  1  0  0  0  0
  7 17  1  0  0  0  0
 10 18  1  0  0  0  0
M  END
> <Molecule ChEMBL ID>
CHEMBL1409793

> <Class(50)>
0

> <Class(80)>
0

>  <salt>
false

>  <StandardizerResult>
Tautomerize (ID: Tautomerize)
Neutralize (ID: Neutralize)
Aromatize (ID: Aromatize)
Wedge Clean (ID: Wedge Clean)
Clean 2D (ID: Clean2D)

$$$$
CHEMBL1256391
  Mrv2010 08032110442D          

 25 26  0  0  0  0            999 V2000
    0.6290    2.8821    0.0000 C   0  0  0  0  0  0  0  0  0  0  0  0
    0.6290    2.0571    0.0000 C   0  0  0  0  0  0  0  0  0  0  0  0
    1.3434    1.6446    0.0000 C   0  0  0  0  0  0  0  0  0  0  0  0
    1.3434    0.8196    0.0000 C   0  0  0  0  0  0  0  0  0  0  0  0
    0.6290    0.4071    0.0000 C   0  0  0  0  0  0  0  0  0  0  0  0
    0.6290   -0.4179    0.0000 O   0  0  0  0  0  0  0  0  0  0  0  0
   -0.0855    0.8196    0.0000 N   0  0  0  0  0  0  0  0  0  0  0  0
   -0.8000    0.4071    0.0000 C   0  0  0  0  0  0  0  0  0  0  0  0
   -0.8000   -0.4179    0.0000 C   0  0  0  0  0  0  0  0  0  0  0  0
   -1.5145   -0.8304    0.0000 C   0  0  0  0  0  0  0  0  0  0  0  0
   -2.2289   -0.4179    0.0000 C   0  0  0  0  0  0  0  0  0  0  0  0
   -2.2289    0.4071    0.0000 C   0  0  0  0  0  0  0  0  0  0  0  0
   -1.5145    0.8196    0.0000 C   0  0  0  0  0  0  0  0  0  0  0  0
   -0.0855    1.6446    0.0000 C   0  0  0  0  0  0  0  0  0  0  0  0
    2.0579    0.4071    0.0000 H   0  0  0  0  0  0  0  0  0  0  0  0
   -2.9434    0.8196    0.0000 H   0  0  0  0  0  0  0  0  0  0  0  0
   -0.8000    2.0571    0.0000 H   0  0  0  0  0  0  0  0  0  0  0  0
    2.0579    2.0571    0.0000 H   0  0  0  0  0  0  0  0  0  0  0  0
   -1.5145    1.6446    0.0000 H   0  0  0  0  0  0  0  0  0  0  0  0
   -2.9434   -0.8304    0.0000 H   0  0  0  0  0  0  0  0  0  0  0  0
   -0.0855   -0.8304    0.0000 H   0  0  0  0  0  0  0  0  0  0  0  0
   -1.5145   -1.6554    0.0000 H   0  0  0  0  0  0  0  0  0  0  0  0
    1.4540    2.8821    0.0000 H   0  0  0  0  0  0  0  0  0  0  0  0
    0.6290    3.7071    0.0000 H   0  0  0  0  0  0  0  0  0  0  0  0
   -0.1960    2.8821    0.0000 H   0  0  0  0  0  0  0  0  0  0  0  0
  1  2  1  0  0  0  0
  2  3  1  0  0  0  0
  2 14  2  0  0  0  0
  3  4  2  0  0  0  0
  4  5  1  0  0  0  0
  5  6  2  0  0  0  0
  5  7  1  0  0  0  0
  7  8  1  0  0  0  0
  7 14  1  0  0  0  0
  8  9  4  0  0  0  0
  8 13  4  0  0  0  0
  9 10  4  0  0  0  0
 10 11  4  0  0  0  0
 11 12  4  0  0  0  0
 12 13  4  0  0  0  0
  4 15  1  0  0  0  0
 12 16  1  0  0  0  0
 14 17  1  0  0  0  0
  3 18  1  0  0  0  0
 13 19  1  0  0  0  0
 11 20  1  0  0  0  0
  9 21  1  0  0  0  0
 10 22  1  0  0  0  0
  1 23  1  0  0  0  0
  1 24  1  0  0  0  0
  1 25  1  0  0  0  0
M  END
> <Molecule ChEMBL ID>
CHEMBL1256391

> <Class(50)>
0

> <Class(80)>
0

>  <salt>
false

>  <StandardizerResult>
Tautomerize (ID: Tautomerize)
Neutralize (ID: Neutralize)
Aromatize (ID: Aromatize)
Wedge Clean (ID: Wedge Clean)
Clean 2D (ID: Clean2D)

$$$$
CHEMBL281622
  Mrv2010 08032110442D          

 47 49  0  0  1  0            999 V2000
   -5.1282   -1.9545    0.0000 C   0  0  0  0  0  0  0  0  0  0  0  0
   -4.4137   -2.3670    0.0000 C   0  0  0  0  0  0  0  0  0  0  0  0
   -3.6993   -1.9545    0.0000 C   0  0  0  0  0  0  0  0  0  0  0  0
   -2.9848   -2.3670    0.0000 C   0  0  0  0  0  0  0  0  0  0  0  0
   -2.2703   -1.9545    0.0000 C   0  0  0  0  0  0  0  0  0  0  0  0
   -1.5558   -2.3670    0.0000 N   0  0  0  0  0  0  0  0  0  0  0  0
   -0.8414   -1.9545    0.0000 C   0  0  0  0  0  0  0  0  0  0  0  0
   -0.8414   -1.1295    0.0000 C   0  0  0  0  0  0  0  0  0  0  0  0
   -0.1269   -0.7170    0.0000 C   0  0  0  0  0  0  0  0  0  0  0  0
    0.5876   -1.1295    0.0000 N   0  0  0  0  0  0  0  0  0  0  0  0
    1.3020   -0.7170    0.0000 C   0  0  0  0  0  0  0  0  0  0  0  0
    2.0165   -1.1295    0.0000 C   0  0  0  0  0  0  0  0  0  0  0  0
    2.7310   -0.7170    0.0000 C   0  0  0  0  0  0  0  0  0  0  0  0
    3.4455   -1.1295    0.0000 C   0  0  0  0  0  0  0  0  0  0  0  0
    3.4455   -1.9545    0.0000 C   0  0  0  0  0  0  0  0  0  0  0  0
    2.7310   -2.3670    0.0000 C   0  0  0  0  0  0  0  0  0  0  0  0
    2.0165   -1.9545    0.0000 C   0  0  0  0  0  0  0  0  0  0  0  0
    0.5876   -1.9545    0.0000 C   0  0  0  0  0  0  0  0  0  0  0  0
    1.3020   -2.3670    0.0000 C   0  0  0  0  0  0  0  0  0  0  0  0
    1.3020   -3.1920    0.0000 C   0  0  0  0  0  0  0  0  0  0  0  0
    0.5876   -3.6045    0.0000 C   0  0  0  0  0  0  0  0  0  0  0  0
   -0.1269   -3.1920    0.0000 C   0  0  0  0  0  0  0  0  0  0  0  0
   -0.1269   -2.3670    0.0000 C   0  0  0  0  0  0  0  0  0  0  0  0
   -0.1269    0.1080    0.0000 H   0  0  0  0  0  0  0  0  0  0  0  0
    1.3020   -1.5420    0.0000 H   0  0  0  0  0  0  0  0  0  0  0  0
    4.1599   -2.3670    0.0000 H   0  0  0  0  0  0  0  0  0  0  0  0
    4.1599   -0.7170    0.0000 H   0  0  0  0  0  0  0  0  0  0  0  0
   -3.3550   -3.1042    0.0000 H   0  0  0  0  0  0  0  0  0  0  0  0
   -2.6145   -3.1042    0.0000 H   0  0  0  0  0  0  0  0  0  0  0  0
    1.6723    0.0203    0.0000 H   0  0  0  0  0  0  0  0  0  0  0  0
    0.9318    0.0203    0.0000 H   0  0  0  0  0  0  0  0  0  0  0  0
    2.7310    0.1080    0.0000 H   0  0  0  0  0  0  0  0  0  0  0  0
   -0.8414   -3.6045    0.0000 H   0  0  0  0  0  0  0  0  0  0  0  0
   -4.7840   -3.1042    0.0000 H   0  0  0  0  0  0  0  0  0  0  0  0
   -4.0435   -3.1042    0.0000 H   0  0  0  0  0  0  0  0  0  0  0  0
    2.7310   -3.1920    0.0000 H   0  0  0  0  0  0  0  0  0  0  0  0
   -4.7157   -1.2400    0.0000 H   0  0  0  0  0  0  0  0  0  0  0  0
   -5.8427   -1.5420    0.0000 H   0  0  0  0  0  0  0  0  0  0  0  0
   -5.5407   -2.6690    0.0000 H   0  0  0  0  0  0  0  0  0  0  0  0
   -1.5558   -0.7170    0.0000 H   0  0  0  0  0  0  0  0  0  0  0  0
    0.5876   -4.4295    0.0000 H   0  0  0  0  0  0  0  0  0  0  0  0
    1.7145   -3.9065    0.0000 H   0  0  0  0  0  0  0  0  0  0  0  0
   -1.9000   -1.2172    0.0000 H   0  0  0  0  0  0  0  0  0  0  0  0
   -2.6406   -1.2172    0.0000 H   0  0  0  0  0  0  0  0  0  0  0  0
    2.0165   -2.7795    0.0000 H   0  0  0  0  0  0  0  0  0  0  0  0
   -3.3290   -1.2172    0.0000 H   0  0  0  0  0  0  0  0  0  0  0  0
   -4.0695   -1.2172    0.0000 H   0  0  0  0  0  0  0  0  0  0  0  0
  1  2  1  0  0  0  0
  2  3  1  0  0  0  0
  3  4  1  0  0  0  0
  4  5  1  0  0  0  0
  5  6  1  0  0  0  0
  6  7  2  0  0  0  0
  7  8  1  0  0  0  0
  7 23  1  0  0  0  0
  8  9  2  0  0  0  0
  9 10  1  0  0  0  0
 10 11  1  0  0  0  0
 10 18  1  0  0  0  0
 11 12  1  0  0  0  0
 12 13  4  0  0  0  0
 12 17  4  0  0  0  0
 13 14  4  0  0  0  0
 14 15  4  0  0  0  0
 15 16  4  0  0  0  0
 16 17  4  0  0  0  0
 18 19  4  0  0  0  0
 18 23  4  0  0  0  0
 19 20  4  0  0  0  0
 20 21  4  0  0  0  0
 21 22  4  0  0  0  0
 22 23  4  0  0  0  0
  9 24  1  0  0  0  0
 17 25  1  0  0  0  0
 15 26  1  0  0  0  0
 14 27  1  0  0  0  0
  4 28  1  0  0  0  0
  4 29  1  0  0  0  0
 11 30  1  0  0  0  0
 11 31  1  0  0  0  0
 13 32  1  0  0  0  0
 22 33  1  0  0  0  0
  2 34  1  0  0  0  0
  2 35  1  0  0  0  0
 16 36  1  0  0  0  0
  1 37  1  0  0  0  0
  1 38  1  0  0  0  0
  1 39  1  0  0  0  0
  8 40  1  0  0  0  0
 21 41  1  0  0  0  0
 20 42  1  0  0  0  0
  5 43  1  0  0  0  0
  5 44  1  0  0  0  0
 19 45  1  0  0  0  0
  3 46  1  0  0  0  0
  3 47  1  0  0  0  0
M  END
> <Molecule ChEMBL ID>
CHEMBL281622

> <Class(50)>
0

> <Class(80)>
0

>  <salt>
false

>  <StandardizerResult>
Tautomerize (ID: Tautomerize)
Transform (ID: Transform NO2 (1))
Aromatize (ID: Aromatize)
Wedge Clean (ID: Wedge Clean)
Clean 2D (ID: Clean2D)

$$$$
CHEMBL251254
  Mrv2010 08032110442D          

 53 56  0  0  1  0            999 V2000
   -0.0576   -2.9035    0.0000 O   0  0  0  0  0  0  0  0  0  0  0  0
   -0.0576   -2.0785    0.0000 C   0  0  0  0  0  0  0  0  0  0  0  0
   -0.7721   -1.6660    0.0000 C   0  0  0  0  0  0  0  0  0  0  0  0
   -1.4866   -2.0785    0.0000 O   0  0  0  0  0  0  0  0  0  0  0  0
   -1.4866   -2.9035    0.0000 C   0  0  1  0  0  0  0  0  0  0  0  0
   -0.7721   -3.3160    0.0000 O   0  0  0  0  0  0  0  0  0  0  0  0
   -0.7721   -4.1410    0.0000 C   0  0  1  0  0  0  0  0  0  0  0  0
   -0.0576   -4.5535    0.0000 C   0  0  0  0  0  0  0  0  0  0  0  0
   -0.0576   -5.3785    0.0000 O   0  0  0  0  0  0  0  0  0  0  0  0
   -1.4866   -4.5535    0.0000 C   0  0  1  0  0  0  0  0  0  0  0  0
   -1.4866   -5.3785    0.0000 O   0  0  0  0  0  0  0  0  0  0  0  0
   -2.2010   -4.1410    0.0000 C   0  0  1  0  0  0  0  0  0  0  0  0
   -2.9155   -4.5535    0.0000 O   0  0  0  0  0  0  0  0  0  0  0  0
   -2.2010   -3.3160    0.0000 C   0  0  1  0  0  0  0  0  0  0  0  0
   -2.9155   -2.9035    0.0000 O   0  0  0  0  0  0  0  0  0  0  0  0
   -0.7721   -0.8410    0.0000 C   0  0  0  0  0  0  0  0  0  0  0  0
   -1.4866   -0.4285    0.0000 C   0  0  0  0  0  0  0  0  0  0  0  0
   -2.2010   -0.8410    0.0000 C   0  0  0  0  0  0  0  0  0  0  0  0
   -2.9155   -0.4285    0.0000 C   0  0  0  0  0  0  0  0  0  0  0  0
   -2.9155    0.3965    0.0000 C   0  0  0  0  0  0  0  0  0  0  0  0
   -3.6300    0.8090    0.0000 O   0  0  0  0  0  0  0  0  0  0  0  0
   -2.2010    0.8090    0.0000 C   0  0  0  0  0  0  0  0  0  0  0  0
   -2.2010    1.6340    0.0000 O   0  0  0  0  0  0  0  0  0  0  0  0
   -1.4866    0.3965    0.0000 C   0  0  0  0  0  0  0  0  0  0  0  0
   -0.0576   -0.4285    0.0000 O   0  0  0  0  0  0  0  0  0  0  0  0
    0.6568   -0.8410    0.0000 C   0  0  0  0  0  0  0  0  0  0  0  0
    1.3713   -0.4285    0.0000 C   0  0  0  0  0  0  0  0  0  0  0  0
    2.0858   -0.8410    0.0000 C   0  0  0  0  0  0  0  0  0  0  0  0
    2.8003   -0.4285    0.0000 O   0  0  0  0  0  0  0  0  0  0  0  0
    2.0858   -1.6660    0.0000 C   0  0  0  0  0  0  0  0  0  0  0  0
    1.3713   -2.0785    0.0000 C   0  0  0  0  0  0  0  0  0  0  0  0
    1.3713   -2.9035    0.0000 O   0  0  0  0  0  0  0  0  0  0  0  0
    0.6568   -1.6660    0.0000 C   0  0  0  0  0  0  0  0  0  0  0  0
    0.6568   -3.3160    0.0000 H   0  0  0  0  0  0  0  0  0  0  0  0
   -0.7721    0.8090    0.0000 H   0  0  0  0  0  0  0  0  0  0  0  0
    3.5147   -0.8410    0.0000 H   0  0  0  0  0  0  0  0  0  0  0  0
   -0.7721   -4.9660    0.0000 H   0  0  0  0  0  0  0  0  0  0  0  0
   -2.2010   -2.4910    0.0000 H   0  0  0  0  0  0  0  0  0  0  0  0
   -3.6300    1.6340    0.0000 H   0  0  0  0  0  0  0  0  0  0  0  0
   -1.4866    2.0465    0.0000 H   0  0  0  0  0  0  0  0  0  0  0  0
   -2.2010   -4.9660    0.0000 H   0  0  0  0  0  0  0  0  0  0  0  0
   -3.6300   -2.4910    0.0000 H   0  0  0  0  0  0  0  0  0  0  0  0
   -2.9155   -3.7285    0.0000 H   0  0  0  0  0  0  0  0  0  0  0  0
   -1.4866   -6.2035    0.0000 H   0  0  0  0  0  0  0  0  0  0  0  0
   -2.2010   -1.6660    0.0000 H   0  0  0  0  0  0  0  0  0  0  0  0
    0.3549   -6.0930    0.0000 H   0  0  0  0  0  0  0  0  0  0  0  0
   -3.6300   -4.9660    0.0000 H   0  0  0  0  0  0  0  0  0  0  0  0
    2.8003   -2.0785    0.0000 H   0  0  0  0  0  0  0  0  0  0  0  0
   -1.4866   -3.7285    0.0000 H   0  0  0  0  0  0  0  0  0  0  0  0
   -3.6300   -0.8410    0.0000 H   0  0  0  0  0  0  0  0  0  0  0  0
    0.7660   -4.5055    0.0000 H   0  0  0  0  0  0  0  0  0  0  0  0
    0.3957   -3.8642    0.0000 H   0  0  0  0  0  0  0  0  0  0  0  0
    1.3713    0.3965    0.0000 H   0  0  0  0  0  0  0  0  0  0  0  0
  1  2  2  0  0  0  0
  2  3  1  0  0  0  0
  2 33  1  0  0  0  0
  3  4  1  0  0  0  0
  3 16  2  0  0  0  0
  5  4  1  0  0  0  0
  5  6  1  0  0  0  0
 14  5  1  0  0  0  0
  7  6  1  0  0  0  0
  7  8  1  0  0  0  0
 10  7  1  0  0  0  0
  8  9  1  0  0  0  0
 10 11  1  0  0  0  0
 10 12  1  0  0  0  0
 12 13  1  0  0  0  0
 12 14  1  0  0  0  0
 14 15  1  0  0  0  0
 16 17  1  0  0  0  0
 16 25  1  0  0  0  0
 17 18  4  0  0  0  0
 17 24  4  0  0  0  0
 18 19  4  0  0  0  0
 19 20  4  0  0  0  0
 20 21  1  0  0  0  0
 20 22  4  0  0  0  0
 22 23  1  0  0  0  0
 22 24  4  0  0  0  0
 25 26  1  0  0  0  0
 26 27  4  0  0  0  0
 26 33  4  0  0  0  0
 27 28  4  0  0  0  0
 28 29  1  0  0  0  0
 28 30  4  0  0  0  0
 30 31  4  0  0  0  0
 31 32  1  0  0  0  0
 31 33  4  0  0  0  0
 32 34  1  0  0  0  0
 24 35  1  0  0  0  0
 29 36  1  0  0  0  0
  7 37  1  6  0  0  0
  5 38  1  6  0  0  0
 21 39  1  0  0  0  0
 23 40  1  0  0  0  0
 10 41  1  6  0  0  0
 15 42  1  0  0  0  0
 12 43  1  6  0  0  0
 11 44  1  0  0  0  0
 18 45  1  0  0  0  0
  9 46  1  0  0  0  0
 13 47  1  0  0  0  0
 30 48  1  0  0  0  0
 14 49  1  6  0  0  0
 19 50  1  0  0  0  0
  8 51  1  0  0  0  0
  8 52  1  0  0  0  0
 27 53  1  0  0  0  0
M  END
> <Molecule ChEMBL ID>
CHEMBL251254

> <Class(50)>
0

> <Class(80)>
0

>  <salt>
false

>  <StandardizerResult>
Tautomerize (ID: Tautomerize)
Transform (ID: Transform NO2 (1))
Aromatize (ID: Aromatize)
Wedge Clean (ID: Wedge Clean)
Clean 2D (ID: Clean2D)

$$$$
CHEMBL596009
  Mrv2010 08032110442D          

 24 25  0  0  0  0            999 V2000
   -3.0511   -2.8344    0.0000 O   0  0  0  0  0  0  0  0  0  0  0  0
   -2.6386   -2.1199    0.0000 C   0  0  0  0  0  0  0  0  0  0  0  0
   -3.0511   -1.4054    0.0000 O   0  0  0  0  0  0  0  0  0  0  0  0
   -1.8136   -2.1199    0.0000 C   0  0  0  0  0  0  0  0  0  0  0  0
   -1.4011   -1.4054    0.0000 C   0  0  0  0  0  0  0  0  0  0  0  0
   -0.5761   -1.4054    0.0000 C   0  0  0  0  0  0  0  0  0  0  0  0
   -0.0912   -0.7380    0.0000 N   0  0  0  0  0  0  0  0  0  0  0  0
    0.6934   -0.9929    0.0000 C   0  0  0  0  0  0  0  0  0  0  0  0
    1.4079   -0.5804    0.0000 C   0  0  0  0  0  0  0  0  0  0  0  0
    2.1224   -0.9929    0.0000 C   0  0  0  0  0  0  0  0  0  0  0  0
    2.1224   -1.8179    0.0000 C   0  0  0  0  0  0  0  0  0  0  0  0
    1.4079   -2.2304    0.0000 C   0  0  0  0  0  0  0  0  0  0  0  0
    0.6934   -1.8179    0.0000 C   0  0  0  0  0  0  0  0  0  0  0  0
   -0.0912   -2.0729    0.0000 N   0  0  0  0  0  0  0  0  0  0  0  0
    2.8368   -0.5804    0.0000 H   0  0  0  0  0  0  0  0  0  0  0  0
   -1.7657   -2.9435    0.0000 H   0  0  0  0  0  0  0  0  0  0  0  0
   -1.1244   -2.5732    0.0000 H   0  0  0  0  0  0  0  0  0  0  0  0
    1.4079    0.2446    0.0000 H   0  0  0  0  0  0  0  0  0  0  0  0
   -1.4491   -0.5818    0.0000 H   0  0  0  0  0  0  0  0  0  0  0  0
   -2.0904   -0.9521    0.0000 H   0  0  0  0  0  0  0  0  0  0  0  0
    2.8368   -2.2304    0.0000 H   0  0  0  0  0  0  0  0  0  0  0  0
   -0.3461   -2.8575    0.0000 H   0  0  0  0  0  0  0  0  0  0  0  0
    1.4079   -3.0554    0.0000 H   0  0  0  0  0  0  0  0  0  0  0  0
   -2.6386   -0.6909    0.0000 H   0  0  0  0  0  0  0  0  0  0  0  0
  1  2  2  0  0  0  0
  2  3  1  0  0  0  0
  2  4  1  0  0  0  0
  4  5  1  0  0  0  0
  5  6  1  0  0  0  0
  6  7  4  0  0  0  0
  6 14  4  0  0  0  0
  7  8  4  0  0  0  0
  8  9  4  0  0  0  0
  8 13  4  0  0  0  0
  9 10  4  0  0  0  0
 10 11  4  0  0  0  0
 11 12  4  0  0  0  0
 12 13  4  0  0  0  0
 13 14  4  0  0  0  0
 10 15  1  0  0  0  0
  4 16  1  0  0  0  0
  4 17  1  0  0  0  0
  9 18  1  0  0  0  0
  5 19  1  0  0  0  0
  5 20  1  0  0  0  0
 11 21  1  0  0  0  0
 14 22  1  0  0  0  0
 12 23  1  0  0  0  0
  3 24  1  0  0  0  0
M  END
> <Molecule ChEMBL ID>
CHEMBL596009

> <Class(50)>
0

> <Class(80)>
0

>  <salt>
false

>  <StandardizerResult>
Tautomerize (ID: Tautomerize)
Neutralize (ID: Neutralize)
Aromatize (ID: Aromatize)
Wedge Clean (ID: Wedge Clean)
Clean 2D (ID: Clean2D)

$$$$
CHEMBL144399
  Mrv2010 08032110442D          

 20 21  0  0  0  0            999 V2000
   -0.4713   -0.7066    0.0000 C   0  0  0  0  0  0  0  0  0  0  0  0
   -0.4713    0.1184    0.0000 C   0  0  0  0  0  0  0  0  0  0  0  0
   -1.1857    0.5309    0.0000 N   0  0  0  0  0  0  0  0  0  0  0  0
   -1.1857    1.3559    0.0000 C   0  0  0  0  0  0  0  0  0  0  0  0
   -0.4713    1.7684    0.0000 C   0  0  0  0  0  0  0  0  0  0  0  0
    0.2432    1.3559    0.0000 C   0  0  0  0  0  0  0  0  0  0  0  0
    0.9577    1.7684    0.0000 N   0  0  0  0  0  0  0  0  0  0  0  0
    1.6722    1.3559    0.0000 C   0  0  0  0  0  0  0  0  0  0  0  0
    2.3866    1.7684    0.0000 O   0  0  0  0  0  0  0  0  0  0  0  0
    1.6722    0.5309    0.0000 C   0  0  0  0  0  0  0  0  0  0  0  0
    0.9577    0.1184    0.0000 C   0  0  0  0  0  0  0  0  0  0  0  0
    0.2432    0.5309    0.0000 C   0  0  0  0  0  0  0  0  0  0  0  0
    2.3866    0.1184    0.0000 H   0  0  0  0  0  0  0  0  0  0  0  0
   -1.2963   -0.7066    0.0000 H   0  0  0  0  0  0  0  0  0  0  0  0
   -0.4713   -1.5316    0.0000 H   0  0  0  0  0  0  0  0  0  0  0  0
    0.3537   -0.7066    0.0000 H   0  0  0  0  0  0  0  0  0  0  0  0
   -1.9002    1.7684    0.0000 H   0  0  0  0  0  0  0  0  0  0  0  0
    0.9577    2.5934    0.0000 H   0  0  0  0  0  0  0  0  0  0  0  0
    0.9577   -0.7066    0.0000 H   0  0  0  0  0  0  0  0  0  0  0  0
   -0.4713    2.5934    0.0000 H   0  0  0  0  0  0  0  0  0  0  0  0
  1  2  1  0  0  0  0
  2  3  4  0  0  0  0
  2 12  4  0  0  0  0
  3  4  4  0  0  0  0
  4  5  4  0  0  0  0
  5  6  4  0  0  0  0
  6  7  1  0  0  0  0
  6 12  4  0  0  0  0
  7  8  1  0  0  0  0
  8  9  2  0  0  0  0
  8 10  1  0  0  0  0
 10 11  2  0  0  0  0
 11 12  1  0  0  0  0
 10 13  1  0  0  0  0
  1 14  1  0  0  0  0
  1 15  1  0  0  0  0
  1 16  1  0  0  0  0
  4 17  1  0  0  0  0
  7 18  1  0  0  0  0
 11 19  1  0  0  0  0
  5 20  1  0  0  0  0
M  END
> <Molecule ChEMBL ID>
CHEMBL144399

> <Class(50)>
0

> <Class(80)>
0

>  <salt>
false

>  <StandardizerResult>
Tautomerize (ID: Tautomerize)
Neutralize (ID: Neutralize)
Aromatize (ID: Aromatize)
Wedge Clean (ID: Wedge Clean)
Clean 2D (ID: Clean2D)

$$$$
CHEMBL310840
  Mrv2010 08032110442D          

 42 44  0  0  0  0            999 V2000
   -5.4476    1.9369    0.0000 C   0  0  0  0  0  0  0  0  0  0  0  0
   -4.7331    1.5244    0.0000 C   0  0  0  0  0  0  0  0  0  0  0  0
   -4.0187    1.9369    0.0000 C   0  0  0  0  0  0  0  0  0  0  0  0
   -3.3042    1.5244    0.0000 C   0  0  0  0  0  0  0  0  0  0  0  0
   -2.5897    1.9369    0.0000 O   0  0  0  0  0  0  0  0  0  0  0  0
   -1.8752    1.5244    0.0000 C   0  0  0  0  0  0  0  0  0  0  0  0
   -1.1608    1.9369    0.0000 C   0  0  0  0  0  0  0  0  0  0  0  0
   -1.1608    2.7619    0.0000 C   0  0  0  0  0  0  0  0  0  0  0  0
   -1.8752    3.1744    0.0000 O   0  0  0  0  0  0  0  0  0  0  0  0
   -0.4463    3.1744    0.0000 C   0  0  0  0  0  0  0  0  0  0  0  0
   -0.4463    3.9994    0.0000 C   0  0  0  0  0  0  0  0  0  0  0  0
   -1.1608    4.4119    0.0000 F   0  0  0  0  0  0  0  0  0  0  0  0
    0.2682    4.4119    0.0000 C   0  0  0  0  0  0  0  0  0  0  0  0
    0.9826    3.9994    0.0000 C   0  0  0  0  0  0  0  0  0  0  0  0
    1.6971    4.4119    0.0000 C   0  0  0  0  0  0  0  0  0  0  0  0
    0.9826    3.1744    0.0000 C   0  0  0  0  0  0  0  0  0  0  0  0
    0.2682    2.7619    0.0000 C   0  0  0  0  0  0  0  0  0  0  0  0
    0.2682    1.9369    0.0000 F   0  0  0  0  0  0  0  0  0  0  0  0
   -0.4463    1.5244    0.0000 C   0  0  0  0  0  0  0  0  0  0  0  0
   -0.4463    0.6994    0.0000 N   0  0  0  0  0  0  0  0  0  0  0  0
   -1.1608    0.2869    0.0000 C   0  0  0  0  0  0  0  0  0  0  0  0
   -1.3323   -0.5201    0.0000 N   0  0  0  0  0  0  0  0  0  0  0  0
   -2.1528   -0.6063    0.0000 N   0  0  0  0  0  0  0  0  0  0  0  0
   -2.4883    0.1474    0.0000 C   0  0  0  0  0  0  0  0  0  0  0  0
   -1.8752    0.6994    0.0000 C   0  0  0  0  0  0  0  0  0  0  0  0
   -5.0351    2.6514    0.0000 H   0  0  0  0  0  0  0  0  0  0  0  0
   -6.1621    2.3494    0.0000 H   0  0  0  0  0  0  0  0  0  0  0  0
   -5.8601    1.2224    0.0000 H   0  0  0  0  0  0  0  0  0  0  0  0
   -3.2069   -0.2580    0.0000 H   0  0  0  0  0  0  0  0  0  0  0  0
    0.2682    5.2369    0.0000 H   0  0  0  0  0  0  0  0  0  0  0  0
    2.1096    3.6974    0.0000 H   0  0  0  0  0  0  0  0  0  0  0  0
    2.4116    4.8244    0.0000 H   0  0  0  0  0  0  0  0  0  0  0  0
    1.2846    5.1264    0.0000 H   0  0  0  0  0  0  0  0  0  0  0  0
   -3.6745    0.7872    0.0000 H   0  0  0  0  0  0  0  0  0  0  0  0
   -2.9339    0.7872    0.0000 H   0  0  0  0  0  0  0  0  0  0  0  0
   -5.1034    0.7872    0.0000 H   0  0  0  0  0  0  0  0  0  0  0  0
   -4.3629    0.7872    0.0000 H   0  0  0  0  0  0  0  0  0  0  0  0
    0.2682    1.1119    0.0000 H   0  0  0  0  0  0  0  0  0  0  0  0
   -2.5653   -1.3208    0.0000 H   0  0  0  0  0  0  0  0  0  0  0  0
   -3.6484    2.6741    0.0000 H   0  0  0  0  0  0  0  0  0  0  0  0
   -4.3889    2.6741    0.0000 H   0  0  0  0  0  0  0  0  0  0  0  0
    1.6971    2.7619    0.0000 H   0  0  0  0  0  0  0  0  0  0  0  0
  1  2  1  0  0  0  0
  2  3  1  0  0  0  0
  3  4  1  0  0  0  0
  4  5  1  0  0  0  0
  5  6  1  0  0  0  0
  6  7  4  0  0  0  0
  6 25  4  0  0  0  0
  7  8  1  0  0  0  0
  7 19  4  0  0  0  0
  8  9  2  0  0  0  0
  8 10  1  0  0  0  0
 10 11  4  0  0  0  0
 10 17  4  0  0  0  0
 11 12  1  0  0  0  0
 11 13  4  0  0  0  0
 13 14  4  0  0  0  0
 14 15  1  0  0  0  0
 14 16  4  0  0  0  0
 16 17  4  0  0  0  0
 17 18  1  0  0  0  0
 19 20  4  0  0  0  0
 20 21  4  0  0  0  0
 21 22  4  0  0  0  0
 21 25  4  0  0  0  0
 22 23  4  0  0  0  0
 23 24  4  0  0  0  0
 24 25  4  0  0  0  0
  1 26  1  0  0  0  0
  1 27  1  0  0  0  0
  1 28  1  0  0  0  0
 24 29  1  0  0  0  0
 13 30  1  0  0  0  0
 15 31  1  0  0  0  0
 15 32  1  0  0  0  0
 15 33  1  0  0  0  0
  4 34  1  0  0  0  0
  4 35  1  0  0  0  0
  2 36  1  0  0  0  0
  2 37  1  0  0  0  0
 19 38  1  0  0  0  0
 23 39  1  0  0  0  0
  3 40  1  0  0  0  0
  3 41  1  0  0  0  0
 16 42  1  0  0  0  0
M  END
> <Molecule ChEMBL ID>
CHEMBL310840

> <Class(50)>
0

> <Class(80)>
0

>  <salt>
false

>  <StandardizerResult>
Tautomerize (ID: Tautomerize)
Neutralize (ID: Neutralize)
Aromatize (ID: Aromatize)
Wedge Clean (ID: Wedge Clean)
Clean 2D (ID: Clean2D)

$$$$
CHEMBL1326499
  Mrv2010 08032110442D          

 51 53  0  0  1  0            999 V2000
   -5.9297   -3.8451    0.0000 C   0  0  0  0  0  0  0  0  0  0  0  0
   -5.2152   -3.4326    0.0000 C   0  0  0  0  0  0  0  0  0  0  0  0
   -5.2152   -2.6076    0.0000 C   0  0  0  0  0  0  0  0  0  0  0  0
   -5.9297   -2.1951    0.0000 C   0  0  0  0  0  0  0  0  0  0  0  0
   -5.9297   -1.3701    0.0000 C   0  0  0  0  0  0  0  0  0  0  0  0
   -5.2152   -0.9576    0.0000 C   0  0  0  0  0  0  0  0  0  0  0  0
   -4.5008   -1.3701    0.0000 C   0  0  0  0  0  0  0  0  0  0  0  0
   -4.5008   -2.1951    0.0000 C   0  0  0  0  0  0  0  0  0  0  0  0
   -3.7863   -2.6076    0.0000 O   0  0  0  0  0  0  0  0  0  0  0  0
   -3.0718   -2.1951    0.0000 C   0  0  0  0  0  0  0  0  0  0  0  0
   -2.3574   -2.6076    0.0000 C   0  0  1  0  0  0  0  0  0  0  0  0
   -2.3574   -3.4326    0.0000 O   0  0  0  0  0  0  0  0  0  0  0  0
   -1.6429   -2.1951    0.0000 C   0  0  0  0  0  0  0  0  0  0  0  0
   -0.9284   -2.6076    0.0000 N   0  0  0  0  0  0  0  0  0  0  0  0
   -0.2139   -2.1951    0.0000 C   0  0  1  0  0  0  0  0  0  0  0  0
   -0.2139   -1.3701    0.0000 C   0  0  0  0  0  0  0  0  0  0  0  0
    0.5005   -0.9576    0.0000 C   0  0  0  0  0  0  0  0  0  0  0  0
    1.2150   -1.3701    0.0000 C   0  0  0  0  0  0  0  0  0  0  0  0
    1.2150   -2.1951    0.0000 C   0  0  0  0  0  0  0  0  0  0  0  0
    1.9295   -2.6076    0.0000 C   0  0  0  0  0  0  0  0  0  0  0  0
    1.9295   -3.4326    0.0000 C   0  0  0  0  0  0  0  0  0  0  0  0
    1.2150   -3.8451    0.0000 C   0  0  0  0  0  0  0  0  0  0  0  0
    0.5005   -3.4326    0.0000 C   0  0  0  0  0  0  0  0  0  0  0  0
    0.5005   -2.6076    0.0000 C   0  0  0  0  0  0  0  0  0  0  0  0
   -2.7016   -1.4579    0.0000 H   0  0  0  0  0  0  0  0  0  0  0  0
   -3.4421   -1.4579    0.0000 H   0  0  0  0  0  0  0  0  0  0  0  0
    2.0386   -1.3221    0.0000 H   0  0  0  0  0  0  0  0  0  0  0  0
    1.6683   -0.6808    0.0000 H   0  0  0  0  0  0  0  0  0  0  0  0
   -6.6442   -0.9576    0.0000 H   0  0  0  0  0  0  0  0  0  0  0  0
   -3.0718   -3.0201    0.0000 H   0  0  0  0  0  0  0  0  0  0  0  0
   -6.3422   -3.1306    0.0000 H   0  0  0  0  0  0  0  0  0  0  0  0
   -6.6442   -4.2576    0.0000 H   0  0  0  0  0  0  0  0  0  0  0  0
   -5.5172   -4.5596    0.0000 H   0  0  0  0  0  0  0  0  0  0  0  0
   -4.7619   -4.1219    0.0000 H   0  0  0  0  0  0  0  0  0  0  0  0
   -4.3916   -3.4806    0.0000 H   0  0  0  0  0  0  0  0  0  0  0  0
   -0.9284   -3.4326    0.0000 H   0  0  0  0  0  0  0  0  0  0  0  0
   -6.6442   -2.6076    0.0000 H   0  0  0  0  0  0  0  0  0  0  0  0
   -1.9449   -4.1471    0.0000 H   0  0  0  0  0  0  0  0  0  0  0  0
    2.6439   -2.1951    0.0000 H   0  0  0  0  0  0  0  0  0  0  0  0
    2.6439   -3.8451    0.0000 H   0  0  0  0  0  0  0  0  0  0  0  0
    1.2150   -4.6701    0.0000 H   0  0  0  0  0  0  0  0  0  0  0  0
   -1.2726   -1.4579    0.0000 H   0  0  0  0  0  0  0  0  0  0  0  0
   -2.0132   -1.4579    0.0000 H   0  0  0  0  0  0  0  0  0  0  0  0
   -0.2139   -3.0201    0.0000 H   0  0  0  0  0  0  0  0  0  0  0  0
   -0.6673   -0.6808    0.0000 H   0  0  0  0  0  0  0  0  0  0  0  0
   -1.0376   -1.3221    0.0000 H   0  0  0  0  0  0  0  0  0  0  0  0
    0.8708   -0.2204    0.0000 H   0  0  0  0  0  0  0  0  0  0  0  0
    0.1303   -0.2204    0.0000 H   0  0  0  0  0  0  0  0  0  0  0  0
    0.0880   -4.1471    0.0000 H   0  0  0  0  0  0  0  0  0  0  0  0
   -5.2152   -0.1326    0.0000 H   0  0  0  0  0  0  0  0  0  0  0  0
   -3.7863   -0.9576    0.0000 H   0  0  0  0  0  0  0  0  0  0  0  0
  1  2  1  0  0  0  0
  2  3  1  0  0  0  0
  3  4  4  0  0  0  0
  3  8  4  0  0  0  0
  4  5  4  0  0  0  0
  5  6  4  0  0  0  0
  6  7  4  0  0  0  0
  7  8  4  0  0  0  0
  8  9  1  0  0  0  0
  9 10  1  0  0  0  0
 11 10  1  0  0  0  0
 11 12  1  0  0  0  0
 11 13  1  0  0  0  0
 13 14  1  0  0  0  0
 15 14  1  0  0  0  0
 15 16  1  0  0  0  0
 15 24  1  0  0  0  0
 16 17  1  0  0  0  0
 17 18  1  0  0  0  0
 18 19  1  0  0  0  0
 19 20  4  0  0  0  0
 19 24  4  0  0  0  0
 20 21  4  0  0  0  0
 21 22  4  0  0  0  0
 22 23  4  0  0  0  0
 23 24  4  0  0  0  0
 10 25  1  0  0  0  0
 10 26  1  0  0  0  0
 18 27  1  0  0  0  0
 18 28  1  0  0  0  0
  5 29  1  0  0  0  0
 11 30  1  1  0  0  0
  1 31  1  0  0  0  0
  1 32  1  0  0  0  0
  1 33  1  0  0  0  0
  2 34  1  0  0  0  0
  2 35  1  0  0  0  0
 14 36  1  0  0  0  0
  4 37  1  0  0  0  0
 12 38  1  0  0  0  0
 20 39  1  0  0  0  0
 21 40  1  0  0  0  0
 22 41  1  0  0  0  0
 13 42  1  0  0  0  0
 13 43  1  0  0  0  0
 15 44  1  6  0  0  0
 16 45  1  0  0  0  0
 16 46  1  0  0  0  0
 17 47  1  0  0  0  0
 17 48  1  0  0  0  0
 23 49  1  0  0  0  0
  6 50  1  0  0  0  0
  7 51  1  0  0  0  0
M  END
> <Molecule ChEMBL ID>
CHEMBL1326499

> <Class(50)>
0

> <Class(80)>
0

>  <salt>
false

>  <StandardizerResult>
Tautomerize (ID: Tautomerize)
Transform (ID: Transform NO2 (1))
Aromatize (ID: Aromatize)
Wedge Clean (ID: Wedge Clean)
Clean 2D (ID: Clean2D)

$$$$
CHEMBL1256662
  Mrv2010 08032110442D          

 51 53  0  0  1  0            999 V2000
   -2.3969   -2.6474    0.0000 C   0  0  0  0  0  0  0  0  0  0  0  0
   -1.6824   -2.2349    0.0000 C   0  0  1  0  0  0  0  0  0  0  0  0
   -0.9679   -2.6474    0.0000 C   0  0  1  0  0  0  0  0  0  0  0  0
   -0.2534   -2.2349    0.0000 O   0  0  0  0  0  0  0  0  0  0  0  0
   -0.9679   -3.4724    0.0000 C   0  0  0  0  0  0  0  0  0  0  0  0
   -0.2534   -3.8849    0.0000 C   0  0  0  0  0  0  0  0  0  0  0  0
   -0.2534   -4.7099    0.0000 C   0  0  0  0  0  0  0  0  0  0  0  0
   -0.9679   -5.1224    0.0000 C   0  0  0  0  0  0  0  0  0  0  0  0
   -0.9679   -5.9474    0.0000 O   0  0  0  0  0  0  0  0  0  0  0  0
   -1.6824   -4.7099    0.0000 C   0  0  0  0  0  0  0  0  0  0  0  0
   -1.6824   -3.8849    0.0000 C   0  0  0  0  0  0  0  0  0  0  0  0
   -1.6824   -1.4099    0.0000 N   0  0  0  0  0  0  0  0  0  0  0  0
   -2.3969   -0.9974    0.0000 C   0  0  0  0  0  0  0  0  0  0  0  0
   -2.3969   -0.1724    0.0000 C   0  0  0  0  0  0  0  0  0  0  0  0
   -1.6824    0.2401    0.0000 C   0  0  0  0  0  0  0  0  0  0  0  0
   -1.6824    1.0651    0.0000 C   0  0  0  0  0  0  0  0  0  0  0  0
   -0.9679    1.4776    0.0000 C   0  0  0  0  0  0  0  0  0  0  0  0
   -0.9679    2.3026    0.0000 C   0  0  0  0  0  0  0  0  0  0  0  0
   -0.2534    2.7151    0.0000 C   0  0  0  0  0  0  0  0  0  0  0  0
    0.4610    2.3026    0.0000 C   0  0  0  0  0  0  0  0  0  0  0  0
    0.4610    1.4776    0.0000 C   0  0  0  0  0  0  0  0  0  0  0  0
   -0.2534    1.0651    0.0000 C   0  0  0  0  0  0  0  0  0  0  0  0
   -0.9679   -0.1724    0.0000 C   0  0  0  0  0  0  0  0  0  0  0  0
   -0.9679   -0.9974    0.0000 C   0  0  0  0  0  0  0  0  0  0  0  0
    1.1755    2.7151    0.0000 H   0  0  0  0  0  0  0  0  0  0  0  0
   -2.8502    0.5169    0.0000 H   0  0  0  0  0  0  0  0  0  0  0  0
   -3.2205   -0.1244    0.0000 H   0  0  0  0  0  0  0  0  0  0  0  0
   -2.8094   -1.9329    0.0000 H   0  0  0  0  0  0  0  0  0  0  0  0
   -3.1113   -3.0599    0.0000 H   0  0  0  0  0  0  0  0  0  0  0  0
   -1.9844   -3.3618    0.0000 H   0  0  0  0  0  0  0  0  0  0  0  0
   -1.6824    2.7151    0.0000 H   0  0  0  0  0  0  0  0  0  0  0  0
    0.5716   -2.2349    0.0000 H   0  0  0  0  0  0  0  0  0  0  0  0
    0.4610   -3.4724    0.0000 H   0  0  0  0  0  0  0  0  0  0  0  0
   -0.9679    0.6526    0.0000 H   0  0  0  0  0  0  0  0  0  0  0  0
   -0.2361   -1.3783    0.0000 H   0  0  0  0  0  0  0  0  0  0  0  0
   -1.6824   -0.5849    0.0000 H   0  0  0  0  0  0  0  0  0  0  0  0
   -2.3969   -5.1224    0.0000 H   0  0  0  0  0  0  0  0  0  0  0  0
   -2.4793   -4.0984    0.0000 H   0  0  0  0  0  0  0  0  0  0  0  0
   -1.6824   -6.3599    0.0000 H   0  0  0  0  0  0  0  0  0  0  0  0
    0.4610   -5.1224    0.0000 H   0  0  0  0  0  0  0  0  0  0  0  0
   -3.2205   -1.0453    0.0000 H   0  0  0  0  0  0  0  0  0  0  0  0
   -2.8502   -1.6866    0.0000 H   0  0  0  0  0  0  0  0  0  0  0  0
   -1.6824   -3.0599    0.0000 H   0  0  0  0  0  0  0  0  0  0  0  0
   -0.2534    3.5401    0.0000 H   0  0  0  0  0  0  0  0  0  0  0  0
   -0.1927   -0.4545    0.0000 H   0  0  0  0  0  0  0  0  0  0  0  0
   -0.1927    0.1098    0.0000 H   0  0  0  0  0  0  0  0  0  0  0  0
   -2.1357    1.7544    0.0000 H   0  0  0  0  0  0  0  0  0  0  0  0
   -2.5060    1.1131    0.0000 H   0  0  0  0  0  0  0  0  0  0  0  0
    1.1755    1.0651    0.0000 H   0  0  0  0  0  0  0  0  0  0  0  0
    0.1591    0.3507    0.0000 H   0  0  0  0  0  0  0  0  0  0  0  0
   -0.9679   -1.8224    0.0000 H   0  0  0  0  0  0  0  0  0  0  0  0
  2  1  1  0  0  0  0
  2  3  1  0  0  0  0
  2 12  1  0  0  0  0
  3  4  1  0  0  0  0
  3  5  1  0  0  0  0
  5  6  4  0  0  0  0
  5 11  4  0  0  0  0
  6  7  4  0  0  0  0
  7  8  4  0  0  0  0
  8  9  1  0  0  0  0
  8 10  4  0  0  0  0
 10 11  4  0  0  0  0
 12 13  1  0  0  0  0
 12 24  1  0  0  0  0
 13 14  1  0  0  0  0
 14 15  1  0  0  0  0
 15 16  1  0  0  0  0
 15 23  1  0  0  0  0
 16 17  1  0  0  0  0
 17 18  4  0  0  0  0
 17 22  4  0  0  0  0
 18 19  4  0  0  0  0
 19 20  4  0  0  0  0
 20 21  4  0  0  0  0
 21 22  4  0  0  0  0
 23 24  1  0  0  0  0
 20 25  1  0  0  0  0
 14 26  1  0  0  0  0
 14 27  1  0  0  0  0
  1 28  1  0  0  0  0
  1 29  1  0  0  0  0
  1 30  1  0  0  0  0
 18 31  1  0  0  0  0
  4 32  1  0  0  0  0
  6 33  1  0  0  0  0
 15 34  1  0  0  0  0
 24 35  1  0  0  0  0
 24 36  1  0  0  0  0
 10 37  1  0  0  0  0
 11 38  1  0  0  0  0
  9 39  1  0  0  0  0
  7 40  1  0  0  0  0
 13 41  1  0  0  0  0
 13 42  1  0  0  0  0
  2 43  1  1  0  0  0
 19 44  1  0  0  0  0
 23 45  1  0  0  0  0
 23 46  1  0  0  0  0
 16 47  1  0  0  0  0
 16 48  1  0  0  0  0
 21 49  1  0  0  0  0
 22 50  1  0  0  0  0
  3 51  1  6  0  0  0
M  END
> <Molecule ChEMBL ID>
CHEMBL1256662

> <Class(50)>
0

> <Class(80)>
0

>  <salt>
true

>  <StandardizerResult>
Tautomerize (ID: Tautomerize)
Transform (ID: Transform NO2 (1))
Aromatize (ID: Aromatize)
Wedge Clean (ID: Wedge Clean)
Clean 2D (ID: Clean2D)

$$$$
CHEMBL578211
  Mrv2010 08032110442D          

 25 26  0  0  1  0            999 V2000
    1.9048   -1.7361    0.0000 C   0  0  0  0  0  0  0  0  0  0  0  0
    1.1202   -1.9910    0.0000 N   0  0  0  0  0  0  0  0  0  0  0  0
    0.8652   -2.7756    0.0000 C   0  0  0  0  0  0  0  0  0  0  0  0
    1.3501   -3.4431    0.0000 O   0  0  0  0  0  0  0  0  0  0  0  0
    0.0402   -2.7756    0.0000 C   0  0  0  0  0  0  0  0  0  0  0  0
   -0.2147   -1.9910    0.0000 C   0  0  0  0  0  0  0  0  0  0  0  0
    0.4527   -1.5061    0.0000 C   0  0  0  0  0  0  0  0  0  0  0  0
    0.4527   -0.6811    0.0000 C   0  0  0  0  0  0  0  0  0  0  0  0
   -0.2617   -0.2686    0.0000 C   0  0  0  0  0  0  0  0  0  0  0  0
   -0.2617    0.5564    0.0000 C   0  0  0  0  0  0  0  0  0  0  0  0
    0.4527    0.9689    0.0000 C   0  0  0  0  0  0  0  0  0  0  0  0
    1.1672    0.5564    0.0000 N   0  0  0  0  0  0  0  0  0  0  0  0
    1.1672   -0.2686    0.0000 C   0  0  0  0  0  0  0  0  0  0  0  0
   -0.7878   -1.3975    0.0000 H   0  0  0  0  0  0  0  0  0  0  0  0
   -1.0272   -2.1343    0.0000 H   0  0  0  0  0  0  0  0  0  0  0  0
    2.1597   -2.5207    0.0000 H   0  0  0  0  0  0  0  0  0  0  0  0
    2.6894   -1.4811    0.0000 H   0  0  0  0  0  0  0  0  0  0  0  0
    1.6498   -0.9514    0.0000 H   0  0  0  0  0  0  0  0  0  0  0  0
    0.4527    1.7939    0.0000 H   0  0  0  0  0  0  0  0  0  0  0  0
   -0.7013   -3.1373    0.0000 H   0  0  0  0  0  0  0  0  0  0  0  0
   -0.0746   -3.5926    0.0000 H   0  0  0  0  0  0  0  0  0  0  0  0
    1.9535   -0.0188    0.0000 H   0  0  0  0  0  0  0  0  0  0  0  0
   -0.9762   -0.6811    0.0000 H   0  0  0  0  0  0  0  0  0  0  0  0
    1.1878   -1.1315    0.0000 H   0  0  0  0  0  0  0  0  0  0  0  0
   -0.9762    0.9689    0.0000 H   0  0  0  0  0  0  0  0  0  0  0  0
  1  2  1  0  0  0  0
  2  3  1  0  0  0  0
  2  7  1  0  0  0  0
  3  4  2  0  0  0  0
  3  5  1  0  0  0  0
  5  6  1  0  0  0  0
  6  7  1  0  0  0  0
  7  8  1  0  0  0  0
  8  9  4  0  0  0  0
  8 13  4  0  0  0  0
  9 10  4  0  0  0  0
 10 11  4  0  0  0  0
 11 12  4  0  0  0  0
 12 13  4  0  0  0  0
  6 14  1  0  0  0  0
  6 15  1  0  0  0  0
  1 16  1  0  0  0  0
  1 17  1  0  0  0  0
  1 18  1  0  0  0  0
 11 19  1  0  0  0  0
  5 20  1  0  0  0  0
  5 21  1  0  0  0  0
 13 22  1  0  0  0  0
  9 23  1  0  0  0  0
  7 24  1  0  0  0  0
 10 25  1  0  0  0  0
M  END
> <Molecule ChEMBL ID>
CHEMBL578211

> <Class(50)>
0

> <Class(80)>
0

>  <salt>
false

>  <StandardizerResult>
Tautomerize (ID: Tautomerize)
Transform (ID: Transform NO2 (1))
Aromatize (ID: Aromatize)
Wedge Clean (ID: Wedge Clean)
Clean 2D (ID: Clean2D)

$$$$
CHEMBL1371156
  Mrv2010 08032110442D          

 35 37  0  0  0  0            999 V2000
   -2.5615   -3.6220    0.0000 C   0  0  0  0  0  0  0  0  0  0  0  0
   -2.3065   -2.8374    0.0000 N   0  0  0  0  0  0  0  0  0  0  0  0
   -2.8585   -2.2243    0.0000 C   0  0  0  0  0  0  0  0  0  0  0  0
   -2.6036   -1.4397    0.0000 C   0  0  0  0  0  0  0  0  0  0  0  0
   -1.7966   -1.2681    0.0000 C   0  0  0  0  0  0  0  0  0  0  0  0
   -1.5417   -0.4835    0.0000 C   0  0  0  0  0  0  0  0  0  0  0  0
   -2.0266    0.1839    0.0000 C   0  0  0  0  0  0  0  0  0  0  0  0
   -1.5417    0.8514    0.0000 N   0  0  0  0  0  0  0  0  0  0  0  0
   -0.7571    0.5964    0.0000 C   0  0  0  0  0  0  0  0  0  0  0  0
   -0.0426    1.0089    0.0000 C   0  0  0  0  0  0  0  0  0  0  0  0
    0.6719    0.5964    0.0000 C   0  0  0  0  0  0  0  0  0  0  0  0
    0.6719   -0.2286    0.0000 C   0  0  0  0  0  0  0  0  0  0  0  0
    1.3863   -0.6411    0.0000 O   0  0  0  0  0  0  0  0  0  0  0  0
   -0.0426   -0.6411    0.0000 C   0  0  0  0  0  0  0  0  0  0  0  0
   -0.7571   -0.2286    0.0000 C   0  0  0  0  0  0  0  0  0  0  0  0
   -1.2446   -1.8812    0.0000 C   0  0  0  0  0  0  0  0  0  0  0  0
   -1.4995   -2.6659    0.0000 C   0  0  0  0  0  0  0  0  0  0  0  0
   -0.9897   -1.0966    0.0000 H   0  0  0  0  0  0  0  0  0  0  0  0
   -1.5866   -3.4862    0.0000 H   0  0  0  0  0  0  0  0  0  0  0  0
   -1.0257   -3.3412    0.0000 H   0  0  0  0  0  0  0  0  0  0  0  0
   -1.7966    1.6360    0.0000 H   0  0  0  0  0  0  0  0  0  0  0  0
   -0.0426   -1.4661    0.0000 H   0  0  0  0  0  0  0  0  0  0  0  0
   -3.6567   -2.0154    0.0000 H   0  0  0  0  0  0  0  0  0  0  0  0
   -3.5027   -2.7397    0.0000 H   0  0  0  0  0  0  0  0  0  0  0  0
   -3.3461   -3.3671    0.0000 H   0  0  0  0  0  0  0  0  0  0  0  0
   -2.8164   -4.4066    0.0000 H   0  0  0  0  0  0  0  0  0  0  0  0
   -1.7768   -3.8769    0.0000 H   0  0  0  0  0  0  0  0  0  0  0  0
   -2.8516    0.1839    0.0000 H   0  0  0  0  0  0  0  0  0  0  0  0
   -2.8218   -0.6440    0.0000 H   0  0  0  0  0  0  0  0  0  0  0  0
   -3.3721   -1.1395    0.0000 H   0  0  0  0  0  0  0  0  0  0  0  0
   -0.5945   -2.3891    0.0000 H   0  0  0  0  0  0  0  0  0  0  0  0
   -0.4201   -1.8524    0.0000 H   0  0  0  0  0  0  0  0  0  0  0  0
    1.3863    1.0089    0.0000 H   0  0  0  0  0  0  0  0  0  0  0  0
   -0.0426    1.8339    0.0000 H   0  0  0  0  0  0  0  0  0  0  0  0
    1.3863   -1.4661    0.0000 H   0  0  0  0  0  0  0  0  0  0  0  0
  1  2  1  0  0  0  0
  2  3  1  0  0  0  0
  2 17  1  0  0  0  0
  3  4  1  0  0  0  0
  4  5  1  0  0  0  0
  5  6  1  0  0  0  0
  5 16  1  0  0  0  0
  6  7  4  0  0  0  0
  6 15  4  0  0  0  0
  7  8  4  0  0  0  0
  8  9  4  0  0  0  0
  9 10  4  0  0  0  0
  9 15  4  0  0  0  0
 10 11  4  0  0  0  0
 11 12  4  0  0  0  0
 12 13  1  0  0  0  0
 12 14  4  0  0  0  0
 14 15  4  0  0  0  0
 16 17  1  0  0  0  0
  5 18  1  0  0  0  0
 17 19  1  0  0  0  0
 17 20  1  0  0  0  0
  8 21  1  0  0  0  0
 14 22  1  0  0  0  0
  3 23  1  0  0  0  0
  3 24  1  0  0  0  0
  1 25  1  0  0  0  0
  1 26  1  0  0  0  0
  1 27  1  0  0  0  0
  7 28  1  0  0  0  0
  4 29  1  0  0  0  0
  4 30  1  0  0  0  0
 16 31  1  0  0  0  0
 16 32  1  0  0  0  0
 11 33  1  0  0  0  0
 10 34  1  0  0  0  0
 13 35  1  0  0  0  0
M  END
> <Molecule ChEMBL ID>
CHEMBL1371156

> <Class(50)>
0

> <Class(80)>
0

>  <salt>
false

>  <StandardizerResult>
Tautomerize (ID: Tautomerize)
Neutralize (ID: Neutralize)
Aromatize (ID: Aromatize)
Wedge Clean (ID: Wedge Clean)
Clean 2D (ID: Clean2D)

$$$$
CHEMBL1823681
  Mrv2010 08032110442D          

 31 31  0  0  1  0            999 V2000
   -1.6270   -0.3848    0.0000 C   0  0  0  0  0  0  0  0  0  0  0  0
   -0.9126    0.0277    0.0000 C   0  0  0  0  0  0  0  0  0  0  0  0
   -0.1981   -0.3848    0.0000 O   0  0  0  0  0  0  0  0  0  0  0  0
    0.5164    0.0277    0.0000 C   0  0  0  0  0  0  0  0  0  0  0  0
    0.5164    0.8527    0.0000 O   0  0  0  0  0  0  0  0  0  0  0  0
    1.2308   -0.3848    0.0000 C   0  0  1  0  0  0  0  0  0  0  0  0
    1.2308   -1.2098    0.0000 N   0  0  0  0  0  0  0  0  0  0  0  0
    1.9453    0.0277    0.0000 C   0  0  0  0  0  0  0  0  0  0  0  0
    2.6598   -0.3848    0.0000 C   0  0  0  0  0  0  0  0  0  0  0  0
    3.3742    0.0277    0.0000 C   0  0  0  0  0  0  0  0  0  0  0  0
    4.0887   -0.3848    0.0000 C   0  0  0  0  0  0  0  0  0  0  0  0
    4.0887   -1.2098    0.0000 C   0  0  0  0  0  0  0  0  0  0  0  0
    4.8032   -1.6223    0.0000 O   0  0  0  0  0  0  0  0  0  0  0  0
    3.3742   -1.6223    0.0000 C   0  0  0  0  0  0  0  0  0  0  0  0
    3.3742   -2.4473    0.0000 O   0  0  0  0  0  0  0  0  0  0  0  0
    2.6598   -1.2098    0.0000 C   0  0  0  0  0  0  0  0  0  0  0  0
   -2.0395    0.3296    0.0000 H   0  0  0  0  0  0  0  0  0  0  0  0
   -2.3415   -0.7973    0.0000 H   0  0  0  0  0  0  0  0  0  0  0  0
   -1.2145   -1.0993    0.0000 H   0  0  0  0  0  0  0  0  0  0  0  0
    2.6598   -2.8598    0.0000 H   0  0  0  0  0  0  0  0  0  0  0  0
    4.8032   -2.4473    0.0000 H   0  0  0  0  0  0  0  0  0  0  0  0
   -0.5423    0.7649    0.0000 H   0  0  0  0  0  0  0  0  0  0  0  0
   -1.2828    0.7649    0.0000 H   0  0  0  0  0  0  0  0  0  0  0  0
    1.1829   -2.0334    0.0000 H   0  0  0  0  0  0  0  0  0  0  0  0
    1.9681   -1.5801    0.0000 H   0  0  0  0  0  0  0  0  0  0  0  0
    2.3156    0.7649    0.0000 H   0  0  0  0  0  0  0  0  0  0  0  0
    1.5750    0.7649    0.0000 H   0  0  0  0  0  0  0  0  0  0  0  0
    3.3742    0.8527    0.0000 H   0  0  0  0  0  0  0  0  0  0  0  0
    4.8032    0.0277    0.0000 H   0  0  0  0  0  0  0  0  0  0  0  0
    0.5164   -0.7973    0.0000 H   0  0  0  0  0  0  0  0  0  0  0  0
    1.9520   -0.7859    0.0000 H   0  0  0  0  0  0  0  0  0  0  0  0
  1  2  1  0  0  0  0
  2  3  1  0  0  0  0
  3  4  1  0  0  0  0
  4  5  2  0  0  0  0
  6  4  1  0  0  0  0
  6  7  1  0  0  0  0
  6  8  1  0  0  0  0
  8  9  1  0  0  0  0
  9 10  4  0  0  0  0
  9 16  4  0  0  0  0
 10 11  4  0  0  0  0
 11 12  4  0  0  0  0
 12 13  1  0  0  0  0
 12 14  4  0  0  0  0
 14 15  1  0  0  0  0
 14 16  4  0  0  0  0
  1 17  1  0  0  0  0
  1 18  1  0  0  0  0
  1 19  1  0  0  0  0
 15 20  1  0  0  0  0
 13 21  1  0  0  0  0
  2 22  1  0  0  0  0
  2 23  1  0  0  0  0
  7 24  1  0  0  0  0
  7 25  1  0  0  0  0
  8 26  1  0  0  0  0
  8 27  1  0  0  0  0
 10 28  1  0  0  0  0
 11 29  1  0  0  0  0
  6 30  1  1  0  0  0
 16 31  1  0  0  0  0
M  END
> <Molecule ChEMBL ID>
CHEMBL1823681

> <Class(50)>
0

> <Class(80)>
0

>  <salt>
false

>  <StandardizerResult>
Tautomerize (ID: Tautomerize)
Transform (ID: Transform NO2 (1))
Aromatize (ID: Aromatize)
Wedge Clean (ID: Wedge Clean)
Clean 2D (ID: Clean2D)

$$$$
CHEMBL279390
  Mrv2010 08032110442D          

 23 23  0  0  0  0            999 V2000
   -1.1177   -0.1263    0.0000 N   0  0  0  0  0  0  0  0  0  0  0  0
   -0.4032   -0.5388    0.0000 C   0  0  0  0  0  0  0  0  0  0  0  0
    0.3112   -0.1263    0.0000 C   0  0  0  0  0  0  0  0  0  0  0  0
    1.0257   -0.5388    0.0000 N   0  0  0  0  0  0  0  0  0  0  0  0
    1.7402   -0.1263    0.0000 C   0  0  0  0  0  0  0  0  0  0  0  0
    1.7402    0.6987    0.0000 O   0  0  0  0  0  0  0  0  0  0  0  0
    2.4547   -0.5388    0.0000 C   0  0  0  0  0  0  0  0  0  0  0  0
    3.1691   -0.1263    0.0000 C   0  0  0  0  0  0  0  0  0  0  0  0
    3.8836   -0.5388    0.0000 C   0  0  0  0  0  0  0  0  0  0  0  0
    3.8836   -1.3638    0.0000 C   0  0  0  0  0  0  0  0  0  0  0  0
    4.5981   -1.7763    0.0000 Cl  0  0  0  0  0  0  0  0  0  0  0  0
    3.1691   -1.7763    0.0000 C   0  0  0  0  0  0  0  0  0  0  0  0
    2.4547   -1.3638    0.0000 N   0  0  0  0  0  0  0  0  0  0  0  0
    0.6815    0.6110    0.0000 H   0  0  0  0  0  0  0  0  0  0  0  0
   -0.0590    0.6110    0.0000 H   0  0  0  0  0  0  0  0  0  0  0  0
    4.5981   -0.1263    0.0000 H   0  0  0  0  0  0  0  0  0  0  0  0
    3.1691   -2.6013    0.0000 H   0  0  0  0  0  0  0  0  0  0  0  0
   -0.7735   -1.2760    0.0000 H   0  0  0  0  0  0  0  0  0  0  0  0
   -0.0330   -1.2760    0.0000 H   0  0  0  0  0  0  0  0  0  0  0  0
    1.0257   -1.3638    0.0000 H   0  0  0  0  0  0  0  0  0  0  0  0
    3.1691    0.6987    0.0000 H   0  0  0  0  0  0  0  0  0  0  0  0
   -1.1177    0.6987    0.0000 H   0  0  0  0  0  0  0  0  0  0  0  0
   -1.8322   -0.5388    0.0000 H   0  0  0  0  0  0  0  0  0  0  0  0
  1  2  1  0  0  0  0
  2  3  1  0  0  0  0
  3  4  1  0  0  0  0
  4  5  1  0  0  0  0
  5  6  2  0  0  0  0
  5  7  1  0  0  0  0
  7  8  4  0  0  0  0
  7 13  4  0  0  0  0
  8  9  4  0  0  0  0
  9 10  4  0  0  0  0
 10 11  1  0  0  0  0
 10 12  4  0  0  0  0
 12 13  4  0  0  0  0
  3 14  1  0  0  0  0
  3 15  1  0  0  0  0
  9 16  1  0  0  0  0
 12 17  1  0  0  0  0
  2 18  1  0  0  0  0
  2 19  1  0  0  0  0
  4 20  1  0  0  0  0
  8 21  1  0  0  0  0
  1 22  1  0  0  0  0
  1 23  1  0  0  0  0
M  END
> <Molecule ChEMBL ID>
CHEMBL279390

> <Class(50)>
0

> <Class(80)>
0

>  <salt>
false

>  <StandardizerResult>
Tautomerize (ID: Tautomerize)
Neutralize (ID: Neutralize)
Aromatize (ID: Aromatize)
Wedge Clean (ID: Wedge Clean)
Clean 2D (ID: Clean2D)

$$$$
CHEMBL285718
  Mrv2010 08032110442D          

 42 44  0  0  1  0            999 V2000
   -2.3834    1.2014    0.0000 C   0  0  0  0  0  0  0  0  0  0  0  0
   -2.3834    0.3764    0.0000 C   0  0  0  0  0  0  0  0  0  0  0  0
   -1.6689   -0.0361    0.0000 C   0  0  0  0  0  0  0  0  0  0  0  0
   -0.9544    0.3764    0.0000 O   0  0  0  0  0  0  0  0  0  0  0  0
   -1.6689   -0.8611    0.0000 N   0  0  0  0  0  0  0  0  0  0  0  0
   -0.9544   -1.2736    0.0000 C   0  0  1  0  0  0  0  0  0  0  0  0
   -0.2400   -0.8611    0.0000 C   0  0  0  0  0  0  0  0  0  0  0  0
    0.4745   -1.2736    0.0000 C   0  0  0  0  0  0  0  0  0  0  0  0
    1.1890   -0.8611    0.0000 C   0  0  0  0  0  0  0  0  0  0  0  0
    1.9035   -1.2736    0.0000 C   0  0  0  0  0  0  0  0  0  0  0  0
    1.9035   -2.0986    0.0000 C   0  0  0  0  0  0  0  0  0  0  0  0
    1.1890   -2.5111    0.0000 C   0  0  0  0  0  0  0  0  0  0  0  0
    0.4745   -2.0986    0.0000 C   0  0  0  0  0  0  0  0  0  0  0  0
   -0.2400   -2.5111    0.0000 C   0  0  1  0  0  0  0  0  0  0  0  0
   -0.2400   -3.3361    0.0000 C   0  0  0  0  0  0  0  0  0  0  0  0
    0.4745   -3.7486    0.0000 C   0  0  0  0  0  0  0  0  0  0  0  0
    0.4745   -4.5736    0.0000 C   0  0  0  0  0  0  0  0  0  0  0  0
   -0.2400   -4.9861    0.0000 C   0  0  0  0  0  0  0  0  0  0  0  0
   -0.9544   -4.5736    0.0000 C   0  0  0  0  0  0  0  0  0  0  0  0
   -0.9544   -3.7486    0.0000 C   0  0  0  0  0  0  0  0  0  0  0  0
   -0.9544   -2.0986    0.0000 C   0  0  0  0  0  0  0  0  0  0  0  0
   -2.3834   -1.2736    0.0000 H   0  0  0  0  0  0  0  0  0  0  0  0
   -0.9544   -2.9236    0.0000 H   0  0  0  0  0  0  0  0  0  0  0  0
    0.1303   -0.1238    0.0000 H   0  0  0  0  0  0  0  0  0  0  0  0
   -0.6102   -0.1238    0.0000 H   0  0  0  0  0  0  0  0  0  0  0  0
   -1.5584    1.2014    0.0000 H   0  0  0  0  0  0  0  0  0  0  0  0
   -2.3834    2.0264    0.0000 H   0  0  0  0  0  0  0  0  0  0  0  0
   -3.2084    1.2014    0.0000 H   0  0  0  0  0  0  0  0  0  0  0  0
    1.1890   -3.3361    0.0000 H   0  0  0  0  0  0  0  0  0  0  0  0
   -1.7794   -3.7486    0.0000 H   0  0  0  0  0  0  0  0  0  0  0  0
    2.6179   -2.5111    0.0000 H   0  0  0  0  0  0  0  0  0  0  0  0
    1.1890   -0.0361    0.0000 H   0  0  0  0  0  0  0  0  0  0  0  0
   -3.2070    0.3285    0.0000 H   0  0  0  0  0  0  0  0  0  0  0  0
   -2.8367   -0.3128    0.0000 H   0  0  0  0  0  0  0  0  0  0  0  0
   -1.6689   -2.5111    0.0000 H   0  0  0  0  0  0  0  0  0  0  0  0
   -0.2400   -1.6861    0.0000 H   0  0  0  0  0  0  0  0  0  0  0  0
    0.4745   -2.9236    0.0000 H   0  0  0  0  0  0  0  0  0  0  0  0
   -1.6689   -4.9861    0.0000 H   0  0  0  0  0  0  0  0  0  0  0  0
    2.6179   -0.8611    0.0000 H   0  0  0  0  0  0  0  0  0  0  0  0
    1.1890   -4.9861    0.0000 H   0  0  0  0  0  0  0  0  0  0  0  0
   -0.2400   -5.8111    0.0000 H   0  0  0  0  0  0  0  0  0  0  0  0
   -1.6689   -1.6861    0.0000 H   0  0  0  0  0  0  0  0  0  0  0  0
  1  2  1  0  0  0  0
  2  3  1  0  0  0  0
  3  4  2  0  0  0  0
  3  5  1  0  0  0  0
  6  5  1  0  0  0  0
  6  7  1  0  0  0  0
  6 21  1  0  0  0  0
  7  8  1  0  0  0  0
  8  9  4  0  0  0  0
  8 13  4  0  0  0  0
  9 10  4  0  0  0  0
 10 11  4  0  0  0  0
 11 12  4  0  0  0  0
 12 13  4  0  0  0  0
 14 13  1  0  0  0  0
 14 15  1  0  0  0  0
 14 21  1  0  0  0  0
 15 16  4  0  0  0  0
 15 20  4  0  0  0  0
 16 17  4  0  0  0  0
 17 18  4  0  0  0  0
 18 19  4  0  0  0  0
 19 20  4  0  0  0  0
  5 22  1  0  0  0  0
 14 23  1  6  0  0  0
  7 24  1  0  0  0  0
  7 25  1  0  0  0  0
  1 26  1  0  0  0  0
  1 27  1  0  0  0  0
  1 28  1  0  0  0  0
 12 29  1  0  0  0  0
 20 30  1  0  0  0  0
 11 31  1  0  0  0  0
  9 32  1  0  0  0  0
  2 33  1  0  0  0  0
  2 34  1  0  0  0  0
 21 35  1  0  0  0  0
 21 36  1  0  0  0  0
 16 37  1  0  0  0  0
 19 38  1  0  0  0  0
 10 39  1  0  0  0  0
 17 40  1  0  0  0  0
 18 41  1  0  0  0  0
  6 42  1  6  0  0  0
M  END
> <Molecule ChEMBL ID>
CHEMBL285718

> <Class(50)>
0

> <Class(80)>
0

>  <salt>
false

>  <StandardizerResult>
Tautomerize (ID: Tautomerize)
Transform (ID: Transform NO2 (1))
Aromatize (ID: Aromatize)
Wedge Clean (ID: Wedge Clean)
Clean 2D (ID: Clean2D)

$$$$
CHEMBL2103996
  Mrv2010 08032110442D          

 24 24  0  0  1  0            999 V2000
    0.1010    1.9666    0.0000 C   0  0  0  0  0  0  0  0  0  0  0  0
    0.8155    1.5541    0.0000 N   0  0  0  0  0  0  0  0  0  0  0  0
    0.8155    0.7291    0.0000 C   0  0  0  0  0  0  0  0  0  0  0  0
    1.5300    0.3166    0.0000 C   0  0  0  0  0  0  0  0  0  0  0  0
    2.2444    0.7291    0.0000 O   0  0  0  0  0  0  0  0  0  0  0  0
    1.5300   -0.5084    0.0000 C   0  0  0  0  0  0  0  0  0  0  0  0
    2.2444   -0.9209    0.0000 C   0  0  0  0  0  0  0  0  0  0  0  0
    2.2444   -1.7459    0.0000 C   0  0  0  0  0  0  0  0  0  0  0  0
    1.5300   -2.1584    0.0000 C   0  0  0  0  0  0  0  0  0  0  0  0
    1.5300   -2.9834    0.0000 O   0  0  0  0  0  0  0  0  0  0  0  0
    0.8155   -1.7459    0.0000 C   0  0  0  0  0  0  0  0  0  0  0  0
    0.1010   -2.1584    0.0000 O   0  0  0  0  0  0  0  0  0  0  0  0
    0.8155   -0.9209    0.0000 C   0  0  0  0  0  0  0  0  0  0  0  0
    2.9589   -0.5084    0.0000 H   0  0  0  0  0  0  0  0  0  0  0  0
   -0.6134   -1.7459    0.0000 H   0  0  0  0  0  0  0  0  0  0  0  0
    0.1010   -0.5084    0.0000 H   0  0  0  0  0  0  0  0  0  0  0  0
   -0.0081    0.6812    0.0000 H   0  0  0  0  0  0  0  0  0  0  0  0
    0.3622    0.0399    0.0000 H   0  0  0  0  0  0  0  0  0  0  0  0
    2.9589   -2.1584    0.0000 H   0  0  0  0  0  0  0  0  0  0  0  0
    0.5135    2.6811    0.0000 H   0  0  0  0  0  0  0  0  0  0  0  0
   -0.6134    2.3791    0.0000 H   0  0  0  0  0  0  0  0  0  0  0  0
   -0.3115    1.2522    0.0000 H   0  0  0  0  0  0  0  0  0  0  0  0
    1.5300    1.9666    0.0000 H   0  0  0  0  0  0  0  0  0  0  0  0
    0.8155   -3.3959    0.0000 H   0  0  0  0  0  0  0  0  0  0  0  0
  1  2  1  0  0  0  0
  2  3  1  0  0  0  0
  3  4  1  0  0  0  0
  4  5  2  0  0  0  0
  4  6  1  0  0  0  0
  6  7  4  0  0  0  0
  6 13  4  0  0  0  0
  7  8  4  0  0  0  0
  8  9  4  0  0  0  0
  9 10  1  0  0  0  0
  9 11  4  0  0  0  0
 11 12  1  0  0  0  0
 11 13  4  0  0  0  0
  7 14  1  0  0  0  0
 12 15  1  0  0  0  0
 13 16  1  0  0  0  0
  3 17  1  0  0  0  0
  3 18  1  0  0  0  0
  8 19  1  0  0  0  0
  1 20  1  0  0  0  0
  1 21  1  0  0  0  0
  1 22  1  0  0  0  0
  2 23  1  0  0  0  0
 10 24  1  0  0  0  0
M  END
> <Molecule ChEMBL ID>
CHEMBL2103996

> <Class(50)>
0

> <Class(80)>
0

>  <salt>
false

>  <StandardizerResult>
Tautomerize (ID: Tautomerize)
Transform (ID: Transform NO2 (1))
Aromatize (ID: Aromatize)
Wedge Clean (ID: Wedge Clean)
Clean 2D (ID: Clean2D)

$$$$
CHEMBL6640
  Mrv2010 08032110442D          

 24 25  0  0  0  0            999 V2000
   -2.2759   -2.9004    0.0000 N   0  0  0  0  0  0  0  0  0  0  0  0
   -2.0210   -2.1158    0.0000 C   0  0  0  0  0  0  0  0  0  0  0  0
   -1.2140   -1.9443    0.0000 C   0  0  0  0  0  0  0  0  0  0  0  0
   -0.9590   -1.1597    0.0000 C   0  0  0  0  0  0  0  0  0  0  0  0
   -1.4440   -0.4922    0.0000 C   0  0  0  0  0  0  0  0  0  0  0  0
   -0.9590    0.1752    0.0000 N   0  0  0  0  0  0  0  0  0  0  0  0
   -0.1744   -0.0797    0.0000 C   0  0  0  0  0  0  0  0  0  0  0  0
    0.5400    0.3328    0.0000 C   0  0  0  0  0  0  0  0  0  0  0  0
    1.2545   -0.0797    0.0000 C   0  0  0  0  0  0  0  0  0  0  0  0
    1.2545   -0.9047    0.0000 C   0  0  0  0  0  0  0  0  0  0  0  0
    0.5400   -1.3172    0.0000 C   0  0  0  0  0  0  0  0  0  0  0  0
   -0.1744   -0.9047    0.0000 C   0  0  0  0  0  0  0  0  0  0  0  0
    0.5400   -2.1422    0.0000 H   0  0  0  0  0  0  0  0  0  0  0  0
   -1.2140    0.9598    0.0000 H   0  0  0  0  0  0  0  0  0  0  0  0
   -2.2690   -0.4922    0.0000 H   0  0  0  0  0  0  0  0  0  0  0  0
    1.9690    0.3328    0.0000 H   0  0  0  0  0  0  0  0  0  0  0  0
   -3.0829   -3.0720    0.0000 H   0  0  0  0  0  0  0  0  0  0  0  0
   -1.7239   -3.5135    0.0000 H   0  0  0  0  0  0  0  0  0  0  0  0
    0.5400    1.1578    0.0000 H   0  0  0  0  0  0  0  0  0  0  0  0
    1.9690   -1.3172    0.0000 H   0  0  0  0  0  0  0  0  0  0  0  0
   -2.2391   -1.3202    0.0000 H   0  0  0  0  0  0  0  0  0  0  0  0
   -2.7894   -1.8157    0.0000 H   0  0  0  0  0  0  0  0  0  0  0  0
   -0.9958   -2.7399    0.0000 H   0  0  0  0  0  0  0  0  0  0  0  0
   -0.4455   -2.2444    0.0000 H   0  0  0  0  0  0  0  0  0  0  0  0
  1  2  1  0  0  0  0
  2  3  1  0  0  0  0
  3  4  1  0  0  0  0
  4  5  4  0  0  0  0
  4 12  4  0  0  0  0
  5  6  4  0  0  0  0
  6  7  4  0  0  0  0
  7  8  4  0  0  0  0
  7 12  4  0  0  0  0
  8  9  4  0  0  0  0
  9 10  4  0  0  0  0
 10 11  4  0  0  0  0
 11 12  4  0  0  0  0
 11 13  1  0  0  0  0
  6 14  1  0  0  0  0
  5 15  1  0  0  0  0
  9 16  1  0  0  0  0
  1 17  1  0  0  0  0
  1 18  1  0  0  0  0
  8 19  1  0  0  0  0
 10 20  1  0  0  0  0
  2 21  1  0  0  0  0
  2 22  1  0  0  0  0
  3 23  1  0  0  0  0
  3 24  1  0  0  0  0
M  END
> <Molecule ChEMBL ID>
CHEMBL6640

> <Class(50)>
0

> <Class(80)>
0

>  <salt>
false

>  <StandardizerResult>
Tautomerize (ID: Tautomerize)
Neutralize (ID: Neutralize)
Aromatize (ID: Aromatize)
Wedge Clean (ID: Wedge Clean)
Clean 2D (ID: Clean2D)

$$$$
CHEMBL211769
  Mrv2010 08032110442D          

 30 31  0  0  1  0            999 V2000
   -0.5194    1.5302    0.0000 C   0  0  0  0  0  0  0  0  0  0  0  0
    0.1950    1.1177    0.0000 O   0  0  0  0  0  0  0  0  0  0  0  0
    0.1950    0.2927    0.0000 C   0  0  0  0  0  0  0  0  0  0  0  0
   -0.5194   -0.1198    0.0000 O   0  0  0  0  0  0  0  0  0  0  0  0
    0.9095   -0.1198    0.0000 C   0  0  0  0  0  0  0  0  0  0  0  0
    0.9095   -0.9448    0.0000 C   0  0  0  0  0  0  0  0  0  0  0  0
    1.5770   -1.4297    0.0000 C   0  0  0  0  0  0  0  0  0  0  0  0
    1.3220   -2.2144    0.0000 C   0  0  0  0  0  0  0  0  0  0  0  0
    0.4970   -2.2144    0.0000 N   0  0  0  0  0  0  0  0  0  0  0  0
    0.2421   -1.4297    0.0000 O   0  0  0  0  0  0  0  0  0  0  0  0
    1.8069   -2.8818    0.0000 C   0  0  0  0  0  0  0  0  0  0  0  0
    2.6274   -2.7956    0.0000 C   0  0  0  0  0  0  0  0  0  0  0  0
    3.1123   -3.4630    0.0000 C   0  0  0  0  0  0  0  0  0  0  0  0
    2.7768   -4.2167    0.0000 C   0  0  0  0  0  0  0  0  0  0  0  0
    3.2617   -4.8841    0.0000 O   0  0  0  0  0  0  0  0  0  0  0  0
    1.9563   -4.3029    0.0000 C   0  0  0  0  0  0  0  0  0  0  0  0
    1.4714   -3.6355    0.0000 C   0  0  0  0  0  0  0  0  0  0  0  0
    2.3894   -1.5730    0.0000 H   0  0  0  0  0  0  0  0  0  0  0  0
    2.1500   -0.8363    0.0000 H   0  0  0  0  0  0  0  0  0  0  0  0
    1.7331   -0.0718    0.0000 H   0  0  0  0  0  0  0  0  0  0  0  0
    1.3629    0.5695    0.0000 H   0  0  0  0  0  0  0  0  0  0  0  0
    3.9328   -3.3768    0.0000 H   0  0  0  0  0  0  0  0  0  0  0  0
    2.9261   -5.6378    0.0000 H   0  0  0  0  0  0  0  0  0  0  0  0
    0.1744   -0.5703    0.0000 H   0  0  0  0  0  0  0  0  0  0  0  0
   -0.1069    2.2447    0.0000 H   0  0  0  0  0  0  0  0  0  0  0  0
   -1.2339    1.9427    0.0000 H   0  0  0  0  0  0  0  0  0  0  0  0
   -0.9319    0.8157    0.0000 H   0  0  0  0  0  0  0  0  0  0  0  0
    0.6509   -3.7217    0.0000 H   0  0  0  0  0  0  0  0  0  0  0  0
    2.9630   -2.0419    0.0000 H   0  0  0  0  0  0  0  0  0  0  0  0
    1.6207   -5.0566    0.0000 H   0  0  0  0  0  0  0  0  0  0  0  0
  1  2  1  0  0  0  0
  2  3  1  0  0  0  0
  3  4  2  0  0  0  0
  3  5  1  0  0  0  0
  5  6  1  0  0  0  0
  6  7  1  0  0  0  0
  6 10  1  0  0  0  0
  7  8  1  0  0  0  0
  8  9  2  0  0  0  0
  8 11  1  0  0  0  0
  9 10  1  0  0  0  0
 11 12  4  0  0  0  0
 11 17  4  0  0  0  0
 12 13  4  0  0  0  0
 13 14  4  0  0  0  0
 14 15  1  0  0  0  0
 14 16  4  0  0  0  0
 16 17  4  0  0  0  0
  7 18  1  0  0  0  0
  7 19  1  0  0  0  0
  5 20  1  0  0  0  0
  5 21  1  0  0  0  0
 13 22  1  0  0  0  0
 15 23  1  0  0  0  0
  6 24  1  0  0  0  0
  1 25  1  0  0  0  0
  1 26  1  0  0  0  0
  1 27  1  0  0  0  0
 17 28  1  0  0  0  0
 12 29  1  0  0  0  0
 16 30  1  0  0  0  0
M  END
> <Molecule ChEMBL ID>
CHEMBL211769

> <Class(50)>
0

> <Class(80)>
0

>  <salt>
false

>  <StandardizerResult>
Tautomerize (ID: Tautomerize)
Transform (ID: Transform NO2 (1))
Aromatize (ID: Aromatize)
Wedge Clean (ID: Wedge Clean)
Clean 2D (ID: Clean2D)

$$$$
CHEMBL1079604
  Mrv2010 08032110442D          

 31 32  0  0  1  0            999 V2000
   -1.5073    3.1104    0.0000 C   0  0  0  0  0  0  0  0  0  0  0  0
   -0.7928    2.6979    0.0000 C   0  0  0  0  0  0  0  0  0  0  0  0
   -0.0783    3.1104    0.0000 C   0  0  0  0  0  0  0  0  0  0  0  0
    0.6361    2.6979    0.0000 C   0  0  0  0  0  0  0  0  0  0  0  0
    1.3506    3.1104    0.0000 C   0  0  0  0  0  0  0  0  0  0  0  0
    0.6361    1.8729    0.0000 C   0  0  0  0  0  0  0  0  0  0  0  0
   -0.0783    1.4604    0.0000 C   0  0  0  0  0  0  0  0  0  0  0  0
   -0.0783    0.6354    0.0000 O   0  0  0  0  0  0  0  0  0  0  0  0
   -0.7928    0.2229    0.0000 C   0  0  0  0  0  0  0  0  0  0  0  0
   -0.7928   -0.6021    0.0000 C   0  0  0  0  0  0  0  0  0  0  0  0
   -0.1254   -1.0871    0.0000 C   0  0  0  0  0  0  0  0  0  0  0  0
   -0.3803   -1.8717    0.0000 N   0  0  0  0  0  0  0  0  0  0  0  0
   -1.2053   -1.8717    0.0000 C   0  0  0  0  0  0  0  0  0  0  0  0
   -1.6902   -2.5391    0.0000 O   0  0  0  0  0  0  0  0  0  0  0  0
   -1.4602   -1.0871    0.0000 O   0  0  0  0  0  0  0  0  0  0  0  0
   -0.7928    1.8729    0.0000 C   0  0  0  0  0  0  0  0  0  0  0  0
    1.7631    2.3959    0.0000 H   0  0  0  0  0  0  0  0  0  0  0  0
    2.0651    3.5229    0.0000 H   0  0  0  0  0  0  0  0  0  0  0  0
    0.9381    3.8248    0.0000 H   0  0  0  0  0  0  0  0  0  0  0  0
    1.3506    1.4604    0.0000 H   0  0  0  0  0  0  0  0  0  0  0  0
   -0.0783    3.9354    0.0000 H   0  0  0  0  0  0  0  0  0  0  0  0
   -1.5073    1.4604    0.0000 H   0  0  0  0  0  0  0  0  0  0  0  0
   -1.5279   -0.2276    0.0000 H   0  0  0  0  0  0  0  0  0  0  0  0
   -1.2461    0.9121    0.0000 H   0  0  0  0  0  0  0  0  0  0  0  0
   -1.6164    0.2708    0.0000 H   0  0  0  0  0  0  0  0  0  0  0  0
   -1.0948    3.8248    0.0000 H   0  0  0  0  0  0  0  0  0  0  0  0
   -2.2217    3.5229    0.0000 H   0  0  0  0  0  0  0  0  0  0  0  0
   -1.9198    2.3959    0.0000 H   0  0  0  0  0  0  0  0  0  0  0  0
    0.6871   -1.2303    0.0000 H   0  0  0  0  0  0  0  0  0  0  0  0
    0.4477   -0.4936    0.0000 H   0  0  0  0  0  0  0  0  0  0  0  0
    0.1046   -2.5391    0.0000 H   0  0  0  0  0  0  0  0  0  0  0  0
  1  2  1  0  0  0  0
  2  3  4  0  0  0  0
  2 16  4  0  0  0  0
  3  4  4  0  0  0  0
  4  5  1  0  0  0  0
  4  6  4  0  0  0  0
  6  7  4  0  0  0  0
  7  8  1  0  0  0  0
  7 16  4  0  0  0  0
  8  9  1  0  0  0  0
  9 10  1  0  0  0  0
 10 11  1  0  0  0  0
 10 15  1  0  0  0  0
 11 12  1  0  0  0  0
 12 13  1  0  0  0  0
 13 14  2  0  0  0  0
 13 15  1  0  0  0  0
  5 17  1  0  0  0  0
  5 18  1  0  0  0  0
  5 19  1  0  0  0  0
  6 20  1  0  0  0  0
  3 21  1  0  0  0  0
 16 22  1  0  0  0  0
 10 23  1  0  0  0  0
  9 24  1  0  0  0  0
  9 25  1  0  0  0  0
  1 26  1  0  0  0  0
  1 27  1  0  0  0  0
  1 28  1  0  0  0  0
 11 29  1  0  0  0  0
 11 30  1  0  0  0  0
 12 31  1  0  0  0  0
M  END
> <Molecule ChEMBL ID>
CHEMBL1079604

> <Class(50)>
0

> <Class(80)>
0

>  <salt>
false

>  <StandardizerResult>
Tautomerize (ID: Tautomerize)
Transform (ID: Transform NO2 (1))
Aromatize (ID: Aromatize)
Wedge Clean (ID: Wedge Clean)
Clean 2D (ID: Clean2D)

$$$$
CHEMBL1514276
  Mrv2010 08032110442D          

 27 29  0  0  0  0            999 V2000
    1.8396    3.2862    0.0000 Cl  0  0  0  0  0  0  0  0  0  0  0  0
    1.8396    2.4612    0.0000 C   0  0  0  0  0  0  0  0  0  0  0  0
    2.5541    2.0487    0.0000 C   0  0  0  0  0  0  0  0  0  0  0  0
    2.5541    1.2237    0.0000 C   0  0  0  0  0  0  0  0  0  0  0  0
    1.8396    0.8112    0.0000 C   0  0  0  0  0  0  0  0  0  0  0  0
    1.1252    1.2237    0.0000 C   0  0  0  0  0  0  0  0  0  0  0  0
    1.1252    2.0487    0.0000 C   0  0  0  0  0  0  0  0  0  0  0  0
    0.3405    2.3036    0.0000 C   0  0  0  0  0  0  0  0  0  0  0  0
   -0.1444    1.6362    0.0000 N   0  0  0  0  0  0  0  0  0  0  0  0
   -0.9694    1.6362    0.0000 C   0  0  0  0  0  0  0  0  0  0  0  0
   -1.4543    0.9687    0.0000 N   0  0  0  0  0  0  0  0  0  0  0  0
   -2.2389    1.2237    0.0000 C   0  0  0  0  0  0  0  0  0  0  0  0
   -2.2389    2.0487    0.0000 C   0  0  0  0  0  0  0  0  0  0  0  0
   -1.4543    2.3036    0.0000 N   0  0  0  0  0  0  0  0  0  0  0  0
    0.3405    0.9687    0.0000 C   0  0  0  0  0  0  0  0  0  0  0  0
    3.2686    2.4612    0.0000 H   0  0  0  0  0  0  0  0  0  0  0  0
   -1.1994    3.0882    0.0000 H   0  0  0  0  0  0  0  0  0  0  0  0
    0.4838    3.1161    0.0000 H   0  0  0  0  0  0  0  0  0  0  0  0
   -0.2529    2.8767    0.0000 H   0  0  0  0  0  0  0  0  0  0  0  0
   -0.2529    0.3956    0.0000 H   0  0  0  0  0  0  0  0  0  0  0  0
    0.4838    0.1563    0.0000 H   0  0  0  0  0  0  0  0  0  0  0  0
   -3.0559    1.1089    0.0000 H   0  0  0  0  0  0  0  0  0  0  0  0
   -2.6006    0.4822    0.0000 H   0  0  0  0  0  0  0  0  0  0  0  0
    1.8396   -0.0138    0.0000 H   0  0  0  0  0  0  0  0  0  0  0  0
    3.2686    0.8112    0.0000 H   0  0  0  0  0  0  0  0  0  0  0  0
   -2.6006    2.7902    0.0000 H   0  0  0  0  0  0  0  0  0  0  0  0
   -3.0559    2.1635    0.0000 H   0  0  0  0  0  0  0  0  0  0  0  0
  1  2  1  0  0  0  0
  2  3  4  0  0  0  0
  2  7  4  0  0  0  0
  3  4  4  0  0  0  0
  4  5  4  0  0  0  0
  5  6  4  0  0  0  0
  6  7  4  0  0  0  0
  6 15  1  0  0  0  0
  7  8  1  0  0  0  0
  8  9  1  0  0  0  0
  9 10  1  0  0  0  0
  9 15  1  0  0  0  0
 10 11  2  0  0  0  0
 10 14  1  0  0  0  0
 11 12  1  0  0  0  0
 12 13  1  0  0  0  0
 13 14  1  0  0  0  0
  3 16  1  0  0  0  0
 14 17  1  0  0  0  0
  8 18  1  0  0  0  0
  8 19  1  0  0  0  0
 15 20  1  0  0  0  0
 15 21  1  0  0  0  0
 12 22  1  0  0  0  0
 12 23  1  0  0  0  0
  5 24  1  0  0  0  0
  4 25  1  0  0  0  0
 13 26  1  0  0  0  0
 13 27  1  0  0  0  0
M  END
> <Molecule ChEMBL ID>
CHEMBL1514276

> <Class(50)>
0

> <Class(80)>
0

>  <salt>
false

>  <StandardizerResult>
Tautomerize (ID: Tautomerize)
Neutralize (ID: Neutralize)
Aromatize (ID: Aromatize)
Wedge Clean (ID: Wedge Clean)
Clean 2D (ID: Clean2D)

$$$$
CHEMBL104383
  Mrv2010 08032110442D          

 47 49  0  0  1  0            999 V2000
   -1.0939   -3.0417    0.0000 C   0  0  0  0  0  0  0  0  0  0  0  0
   -0.3794   -2.6292    0.0000 C   0  0  0  0  0  0  0  0  0  0  0  0
   -0.3794   -1.8042    0.0000 C   0  0  0  0  0  0  0  0  0  0  0  0
    0.3350   -1.3917    0.0000 N   0  0  0  0  0  0  0  0  0  0  0  0
    1.0495   -1.8042    0.0000 C   0  0  0  0  0  0  0  0  0  0  0  0
    1.0495   -2.6292    0.0000 C   0  0  0  0  0  0  0  0  0  0  0  0
    1.7640   -3.0417    0.0000 C   0  0  0  0  0  0  0  0  0  0  0  0
    2.5177   -2.7062    0.0000 C   0  0  0  0  0  0  0  0  0  0  0  0
    3.0697   -3.3192    0.0000 C   0  0  0  0  0  0  0  0  0  0  0  0
    2.6572   -4.0337    0.0000 C   0  0  0  0  0  0  0  0  0  0  0  0
    1.8502   -3.8622    0.0000 S   0  0  0  0  0  0  0  0  0  0  0  0
    0.3350   -0.5667    0.0000 C   0  0  1  0  0  0  0  0  0  0  0  0
   -0.3794   -0.1542    0.0000 C   0  0  0  0  0  0  0  0  0  0  0  0
   -0.3794    0.6708    0.0000 C   0  0  0  0  0  0  0  0  0  0  0  0
    0.3350    1.0833    0.0000 C   0  0  0  0  0  0  0  0  0  0  0  0
    0.3350    1.9083    0.0000 C   0  0  0  0  0  0  0  0  0  0  0  0
   -0.3794    2.3208    0.0000 O   0  0  0  0  0  0  0  0  0  0  0  0
    1.0495    2.3208    0.0000 C   0  0  0  0  0  0  0  0  0  0  0  0
    1.7640    1.9083    0.0000 C   0  0  0  0  0  0  0  0  0  0  0  0
    1.7640    1.0833    0.0000 C   0  0  0  0  0  0  0  0  0  0  0  0
    1.0495    0.6708    0.0000 C   0  0  0  0  0  0  0  0  0  0  0  0
    1.0495   -0.1542    0.0000 C   0  0  0  0  0  0  0  0  0  0  0  0
    2.4785    2.3208    0.0000 H   0  0  0  0  0  0  0  0  0  0  0  0
    2.4785    0.6708    0.0000 H   0  0  0  0  0  0  0  0  0  0  0  0
   -0.8328   -1.1149    0.0000 H   0  0  0  0  0  0  0  0  0  0  0  0
   -1.2030   -1.7562    0.0000 H   0  0  0  0  0  0  0  0  0  0  0  0
    1.0495   -0.9792    0.0000 H   0  0  0  0  0  0  0  0  0  0  0  0
    3.8902   -3.2330    0.0000 H   0  0  0  0  0  0  0  0  0  0  0  0
   -0.3794    3.1458    0.0000 H   0  0  0  0  0  0  0  0  0  0  0  0
    1.8248   -0.4364    0.0000 H   0  0  0  0  0  0  0  0  0  0  0  0
    1.8248    0.1280    0.0000 H   0  0  0  0  0  0  0  0  0  0  0  0
    3.0535   -2.0788    0.0000 H   0  0  0  0  0  0  0  0  0  0  0  0
    0.0739   -3.3185    0.0000 H   0  0  0  0  0  0  0  0  0  0  0  0
    0.4442   -2.6772    0.0000 H   0  0  0  0  0  0  0  0  0  0  0  0
    2.9927   -4.7874    0.0000 H   0  0  0  0  0  0  0  0  0  0  0  0
   -1.2030   -0.2022    0.0000 H   0  0  0  0  0  0  0  0  0  0  0  0
   -0.8328   -0.8435    0.0000 H   0  0  0  0  0  0  0  0  0  0  0  0
   -0.8328    1.3601    0.0000 H   0  0  0  0  0  0  0  0  0  0  0  0
   -1.2030    0.7188    0.0000 H   0  0  0  0  0  0  0  0  0  0  0  0
   -1.5064   -2.3272    0.0000 H   0  0  0  0  0  0  0  0  0  0  0  0
   -1.8084   -3.4542    0.0000 H   0  0  0  0  0  0  0  0  0  0  0  0
   -0.6814   -3.7562    0.0000 H   0  0  0  0  0  0  0  0  0  0  0  0
    1.0495    3.1458    0.0000 H   0  0  0  0  0  0  0  0  0  0  0  0
    1.8731   -1.7562    0.0000 H   0  0  0  0  0  0  0  0  0  0  0  0
    1.5029   -1.1149    0.0000 H   0  0  0  0  0  0  0  0  0  0  0  0
    0.8677   -3.4339    0.0000 H   0  0  0  0  0  0  0  0  0  0  0  0
    1.7640   -2.2167    0.0000 H   0  0  0  0  0  0  0  0  0  0  0  0
  1  2  1  0  0  0  0
  2  3  1  0  0  0  0
  3  4  1  0  0  0  0
  4  5  1  0  0  0  0
 12  4  1  0  0  0  0
  5  6  1  0  0  0  0
  6  7  1  0  0  0  0
  7  8  4  0  0  0  0
  7 11  4  0  0  0  0
  8  9  4  0  0  0  0
  9 10  4  0  0  0  0
 10 11  4  0  0  0  0
 12 13  1  0  0  0  0
 12 22  1  0  0  0  0
 13 14  1  0  0  0  0
 14 15  1  0  0  0  0
 15 16  4  0  0  0  0
 15 21  4  0  0  0  0
 16 17  1  0  0  0  0
 16 18  4  0  0  0  0
 18 19  4  0  0  0  0
 19 20  4  0  0  0  0
 20 21  4  0  0  0  0
 21 22  1  0  0  0  0
 19 23  1  0  0  0  0
 20 24  1  0  0  0  0
  3 25  1  0  0  0  0
  3 26  1  0  0  0  0
 12 27  1  6  0  0  0
  9 28  1  0  0  0  0
 17 29  1  0  0  0  0
 22 30  1  0  0  0  0
 22 31  1  0  0  0  0
  8 32  1  0  0  0  0
  2 33  1  0  0  0  0
  2 34  1  0  0  0  0
 10 35  1  0  0  0  0
 13 36  1  0  0  0  0
 13 37  1  0  0  0  0
 14 38  1  0  0  0  0
 14 39  1  0  0  0  0
  1 40  1  0  0  0  0
  1 41  1  0  0  0  0
  1 42  1  0  0  0  0
 18 43  1  0  0  0  0
  5 44  1  0  0  0  0
  5 45  1  0  0  0  0
  6 46  1  0  0  0  0
  6 47  1  0  0  0  0
M  END
> <Molecule ChEMBL ID>
CHEMBL104383

> <Class(50)>
0

> <Class(80)>
0

>  <salt>
false

>  <StandardizerResult>
Tautomerize (ID: Tautomerize)
Transform (ID: Transform NO2 (1))
Aromatize (ID: Aromatize)
Wedge Clean (ID: Wedge Clean)
Clean 2D (ID: Clean2D)

$$$$
CHEMBL65892
  Mrv2010 08032110442D          

 44 47  0  0  0  0            999 V2000
    1.4460   -5.8005    0.0000 C   0  0  0  0  0  0  0  0  0  0  0  0
    1.0104   -5.0999    0.0000 N   0  0  0  0  0  0  0  0  0  0  0  0
    1.3994   -4.3724    0.0000 C   0  0  0  0  0  0  0  0  0  0  0  0
    0.1859   -5.1268    0.0000 C   0  0  0  0  0  0  0  0  0  0  0  0
   -0.2497   -4.4261    0.0000 C   0  0  0  0  0  0  0  0  0  0  0  0
   -1.0742   -4.4530    0.0000 C   0  0  0  0  0  0  0  0  0  0  0  0
   -1.5098   -3.7524    0.0000 C   0  0  0  0  0  0  0  0  0  0  0  0
   -1.1208   -3.0249    0.0000 C   0  0  0  0  0  0  0  0  0  0  0  0
   -1.5564   -2.3242    0.0000 C   0  0  0  0  0  0  0  0  0  0  0  0
   -2.3792   -2.2648    0.0000 N   0  0  0  0  0  0  0  0  0  0  0  0
   -2.5770   -1.4638    0.0000 C   0  0  0  0  0  0  0  0  0  0  0  0
   -3.3045   -1.0748    0.0000 C   0  0  0  0  0  0  0  0  0  0  0  0
   -3.3314   -0.2502    0.0000 C   0  0  0  0  0  0  0  0  0  0  0  0
   -2.6308    0.1853    0.0000 C   0  0  0  0  0  0  0  0  0  0  0  0
   -1.8539   -0.2035    0.0000 C   0  0  0  0  0  0  0  0  0  0  0  0
   -1.8763   -1.0282    0.0000 C   0  0  0  0  0  0  0  0  0  0  0  0
   -1.2456   -1.5600    0.0000 N   0  0  0  0  0  0  0  0  0  0  0  0
   -0.4366   -1.3984    0.0000 C   0  0  0  0  0  0  0  0  0  0  0  0
   -0.0585   -0.6651    0.0000 C   0  0  0  0  0  0  0  0  0  0  0  0
   -0.3961    0.0877    0.0000 N   0  0  0  0  0  0  0  0  0  0  0  0
   -1.1951    0.2931    0.0000 C   0  0  0  0  0  0  0  0  0  0  0  0
   -1.3567    1.1021    0.0000 O   0  0  0  0  0  0  0  0  0  0  0  0
   -0.2963   -2.9980    0.0000 C   0  0  0  0  0  0  0  0  0  0  0  0
    0.1393   -3.6986    0.0000 C   0  0  0  0  0  0  0  0  0  0  0  0
    0.6748   -1.0432    0.0000 H   0  0  0  0  0  0  0  0  0  0  0  0
    0.6943   -0.3275    0.0000 H   0  0  0  0  0  0  0  0  0  0  0  0
   -4.0052   -1.5104    0.0000 H   0  0  0  0  0  0  0  0  0  0  0  0
    2.1270   -4.7614    0.0000 H   0  0  0  0  0  0  0  0  0  0  0  0
    1.7884   -3.6448    0.0000 H   0  0  0  0  0  0  0  0  0  0  0  0
    0.6719   -3.9834    0.0000 H   0  0  0  0  0  0  0  0  0  0  0  0
    0.5000   -2.7822    0.0000 H   0  0  0  0  0  0  0  0  0  0  0  0
    0.1357    0.7184    0.0000 H   0  0  0  0  0  0  0  0  0  0  0  0
   -1.4632   -5.1806    0.0000 H   0  0  0  0  0  0  0  0  0  0  0  0
   -2.3344   -3.7793    0.0000 H   0  0  0  0  0  0  0  0  0  0  0  0
   -0.2750   -2.2074    0.0000 H   0  0  0  0  0  0  0  0  0  0  0  0
    0.2967   -1.7765    0.0000 H   0  0  0  0  0  0  0  0  0  0  0  0
   -2.6687    1.0094    0.0000 H   0  0  0  0  0  0  0  0  0  0  0  0
   -4.0589    0.1387    0.0000 H   0  0  0  0  0  0  0  0  0  0  0  0
    0.7454   -6.2361    0.0000 H   0  0  0  0  0  0  0  0  0  0  0  0
    1.8816   -6.5012    0.0000 H   0  0  0  0  0  0  0  0  0  0  0  0
    2.1467   -5.3650    0.0000 H   0  0  0  0  0  0  0  0  0  0  0  0
   -0.4883   -5.6024    0.0000 H   0  0  0  0  0  0  0  0  0  0  0  0
    0.1648   -5.9515    0.0000 H   0  0  0  0  0  0  0  0  0  0  0  0
    0.7033   -3.0965    0.0000 H   0  0  0  0  0  0  0  0  0  0  0  0
  1  2  1  0  0  0  0
  2  3  1  0  0  0  0
  2  4  1  0  0  0  0
  4  5  1  0  0  0  0
  5  6  4  0  0  0  0
  5 24  4  0  0  0  0
  6  7  4  0  0  0  0
  7  8  4  0  0  0  0
  8  9  1  0  0  0  0
  8 23  4  0  0  0  0
  9 10  4  0  0  0  0
  9 17  4  0  0  0  0
 10 11  4  0  0  0  0
 11 12  4  0  0  0  0
 11 16  4  0  0  0  0
 12 13  4  0  0  0  0
 13 14  4  0  0  0  0
 14 15  4  0  0  0  0
 15 16  4  0  0  0  0
 15 21  1  0  0  0  0
 16 17  4  0  0  0  0
 17 18  1  0  0  0  0
 18 19  1  0  0  0  0
 19 20  1  0  0  0  0
 20 21  1  0  0  0  0
 21 22  2  0  0  0  0
 23 24  4  0  0  0  0
 19 25  1  0  0  0  0
 19 26  1  0  0  0  0
 12 27  1  0  0  0  0
  3 28  1  0  0  0  0
  3 29  1  0  0  0  0
  3 30  1  0  0  0  0
 23 31  1  0  0  0  0
 20 32  1  0  0  0  0
  6 33  1  0  0  0  0
  7 34  1  0  0  0  0
 18 35  1  0  0  0  0
 18 36  1  0  0  0  0
 14 37  1  0  0  0  0
 13 38  1  0  0  0  0
  1 39  1  0  0  0  0
  1 40  1  0  0  0  0
  1 41  1  0  0  0  0
  4 42  1  0  0  0  0
  4 43  1  0  0  0  0
 24 44  1  0  0  0  0
M  END
> <Molecule ChEMBL ID>
CHEMBL65892

> <Class(50)>
0

> <Class(80)>
0

>  <salt>
false

>  <StandardizerResult>
Tautomerize (ID: Tautomerize)
Neutralize (ID: Neutralize)
Aromatize (ID: Aromatize)
Wedge Clean (ID: Wedge Clean)
Clean 2D (ID: Clean2D)

$$$$
CHEMBL279218
  Mrv2010 08032110442D          

 40 42  0  0  0  0            999 V2000
   -2.4608    0.1735    0.0000 C   0  0  0  0  0  0  0  0  0  0  0  0
   -1.7464   -0.2390    0.0000 O   0  0  0  0  0  0  0  0  0  0  0  0
   -1.0319    0.1735    0.0000 C   0  0  0  0  0  0  0  0  0  0  0  0
   -0.3174   -0.2390    0.0000 C   0  0  0  0  0  0  0  0  0  0  0  0
    0.3971    0.1735    0.0000 C   0  0  0  0  0  0  0  0  0  0  0  0
    0.3971    0.9985    0.0000 C   0  0  0  0  0  0  0  0  0  0  0  0
   -0.3174    1.4110    0.0000 C   0  0  0  0  0  0  0  0  0  0  0  0
   -1.0319    0.9985    0.0000 C   0  0  0  0  0  0  0  0  0  0  0  0
   -1.7464    1.4110    0.0000 O   0  0  0  0  0  0  0  0  0  0  0  0
   -1.7464    2.2360    0.0000 C   0  0  0  0  0  0  0  0  0  0  0  0
    1.0421    1.5129    0.0000 C   0  0  0  0  0  0  0  0  0  0  0  0
    1.8464    1.3293    0.0000 N   0  0  0  0  0  0  0  0  0  0  0  0
    2.2043    0.5860    0.0000 N   0  0  0  0  0  0  0  0  0  0  0  0
    1.8464   -0.1573    0.0000 C   0  0  0  0  0  0  0  0  0  0  0  0
    2.3608   -0.8023    0.0000 O   0  0  0  0  0  0  0  0  0  0  0  0
    1.0421   -0.3409    0.0000 C   0  0  0  0  0  0  0  0  0  0  0  0
    0.8585    2.3172    0.0000 C   0  0  0  0  0  0  0  0  0  0  0  0
    0.0701    2.5603    0.0000 C   0  0  0  0  0  0  0  0  0  0  0  0
   -0.1134    3.3647    0.0000 C   0  0  0  0  0  0  0  0  0  0  0  0
    0.4913    3.9258    0.0000 C   0  0  0  0  0  0  0  0  0  0  0  0
    0.3077    4.7301    0.0000 N   0  0  0  0  0  0  0  0  0  0  0  0
    1.2797    3.6826    0.0000 C   0  0  0  0  0  0  0  0  0  0  0  0
    1.4633    2.8783    0.0000 C   0  0  0  0  0  0  0  0  0  0  0  0
   -0.3174    2.2360    0.0000 H   0  0  0  0  0  0  0  0  0  0  0  0
    2.2516    2.6351    0.0000 H   0  0  0  0  0  0  0  0  0  0  0  0
   -2.0483    0.8880    0.0000 H   0  0  0  0  0  0  0  0  0  0  0  0
   -3.1753    0.5860    0.0000 H   0  0  0  0  0  0  0  0  0  0  0  0
   -2.8733   -0.5410    0.0000 H   0  0  0  0  0  0  0  0  0  0  0  0
    0.2331    1.7516    0.0000 H   0  0  0  0  0  0  0  0  0  0  0  0
   -0.3174   -1.0640    0.0000 H   0  0  0  0  0  0  0  0  0  0  0  0
    3.0293    0.5860    0.0000 H   0  0  0  0  0  0  0  0  0  0  0  0
    0.5277   -0.9859    0.0000 H   0  0  0  0  0  0  0  0  0  0  0  0
    1.2256   -1.1452    0.0000 H   0  0  0  0  0  0  0  0  0  0  0  0
   -0.9018    3.6078    0.0000 H   0  0  0  0  0  0  0  0  0  0  0  0
    1.8844    4.2438    0.0000 H   0  0  0  0  0  0  0  0  0  0  0  0
   -0.9214    2.2360    0.0000 H   0  0  0  0  0  0  0  0  0  0  0  0
   -1.7464    3.0610    0.0000 H   0  0  0  0  0  0  0  0  0  0  0  0
   -2.5714    2.2360    0.0000 H   0  0  0  0  0  0  0  0  0  0  0  0
    0.9125    5.2913    0.0000 H   0  0  0  0  0  0  0  0  0  0  0  0
   -0.4806    4.9733    0.0000 H   0  0  0  0  0  0  0  0  0  0  0  0
  1  2  1  0  0  0  0
  2  3  1  0  0  0  0
  3  4  4  0  0  0  0
  3  8  4  0  0  0  0
  4  5  4  0  0  0  0
  5  6  4  0  0  0  0
  5 16  1  0  0  0  0
  6  7  4  0  0  0  0
  6 11  1  0  0  0  0
  7  8  4  0  0  0  0
  8  9  1  0  0  0  0
  9 10  1  0  0  0  0
 11 12  2  0  0  0  0
 11 17  1  0  0  0  0
 12 13  1  0  0  0  0
 13 14  1  0  0  0  0
 14 15  2  0  0  0  0
 14 16  1  0  0  0  0
 17 18  4  0  0  0  0
 17 23  4  0  0  0  0
 18 19  4  0  0  0  0
 19 20  4  0  0  0  0
 20 21  1  0  0  0  0
 20 22  4  0  0  0  0
 22 23  4  0  0  0  0
  7 24  1  0  0  0  0
 23 25  1  0  0  0  0
  1 26  1  0  0  0  0
  1 27  1  0  0  0  0
  1 28  1  0  0  0  0
 18 29  1  0  0  0  0
  4 30  1  0  0  0  0
 13 31  1  0  0  0  0
 16 32  1  0  0  0  0
 16 33  1  0  0  0  0
 19 34  1  0  0  0  0
 22 35  1  0  0  0  0
 10 36  1  0  0  0  0
 10 37  1  0  0  0  0
 10 38  1  0  0  0  0
 21 39  1  0  0  0  0
 21 40  1  0  0  0  0
M  END
> <Molecule ChEMBL ID>
CHEMBL279218

> <Class(50)>
0

> <Class(80)>
0

>  <salt>
false

>  <StandardizerResult>
Tautomerize (ID: Tautomerize)
Neutralize (ID: Neutralize)
Aromatize (ID: Aromatize)
Wedge Clean (ID: Wedge Clean)
Clean 2D (ID: Clean2D)

$$$$
CHEMBL286615
  Mrv2010 08032110442D          

 42 44  0  0  0  0            999 V2000
   -4.0737   -1.9632    0.0000 C   0  0  0  0  0  0  0  0  0  0  0  0
   -3.3592   -2.3757    0.0000 C   0  0  0  0  0  0  0  0  0  0  0  0
   -3.3592   -3.2007    0.0000 O   0  0  0  0  0  0  0  0  0  0  0  0
   -2.6447   -1.9632    0.0000 N   0  0  0  0  0  0  0  0  0  0  0  0
   -1.9303   -2.3757    0.0000 C   0  0  0  0  0  0  0  0  0  0  0  0
   -1.2158   -1.9632    0.0000 C   0  0  0  0  0  0  0  0  0  0  0  0
   -0.5013   -2.3757    0.0000 C   0  0  0  0  0  0  0  0  0  0  0  0
    0.2523   -2.0401    0.0000 C   0  0  0  0  0  0  0  0  0  0  0  0
    0.4239   -1.2331    0.0000 C   0  0  0  0  0  0  0  0  0  0  0  0
    1.2085   -0.9782    0.0000 C   0  0  0  0  0  0  0  0  0  0  0  0
    1.3800   -0.1712    0.0000 C   0  0  0  0  0  0  0  0  0  0  0  0
    2.1646    0.0837    0.0000 C   0  0  0  0  0  0  0  0  0  0  0  0
    2.7777   -0.4683    0.0000 C   0  0  0  0  0  0  0  0  0  0  0  0
    2.6062   -1.2753    0.0000 C   0  0  0  0  0  0  0  0  0  0  0  0
    1.8216   -1.5302    0.0000 C   0  0  0  0  0  0  0  0  0  0  0  0
    0.8044   -2.6532    0.0000 N   0  0  0  0  0  0  0  0  0  0  0  0
    0.3919   -3.3677    0.0000 C   0  0  0  0  0  0  0  0  0  0  0  0
    0.6468   -4.1523    0.0000 C   0  0  0  0  0  0  0  0  0  0  0  0
    0.0948   -4.7654    0.0000 C   0  0  0  0  0  0  0  0  0  0  0  0
   -0.7122   -4.5939    0.0000 C   0  0  0  0  0  0  0  0  0  0  0  0
   -0.9671   -3.8092    0.0000 C   0  0  0  0  0  0  0  0  0  0  0  0
   -0.4151   -3.1961    0.0000 C   0  0  0  0  0  0  0  0  0  0  0  0
   -1.6872   -4.2118    0.0000 H   0  0  0  0  0  0  0  0  0  0  0  0
    2.3362    0.8907    0.0000 H   0  0  0  0  0  0  0  0  0  0  0  0
    1.6501   -2.3372    0.0000 H   0  0  0  0  0  0  0  0  0  0  0  0
   -2.3005   -3.1129    0.0000 H   0  0  0  0  0  0  0  0  0  0  0  0
   -1.5600   -3.1129    0.0000 H   0  0  0  0  0  0  0  0  0  0  0  0
    1.4538   -4.3238    0.0000 H   0  0  0  0  0  0  0  0  0  0  0  0
    0.1237   -0.4647    0.0000 H   0  0  0  0  0  0  0  0  0  0  0  0
   -0.3718   -1.0150    0.0000 H   0  0  0  0  0  0  0  0  0  0  0  0
   -0.8455   -1.2259    0.0000 H   0  0  0  0  0  0  0  0  0  0  0  0
   -1.5861   -1.2259    0.0000 H   0  0  0  0  0  0  0  0  0  0  0  0
   -3.6612   -1.2487    0.0000 H   0  0  0  0  0  0  0  0  0  0  0  0
   -4.7882   -1.5507    0.0000 H   0  0  0  0  0  0  0  0  0  0  0  0
   -4.4862   -2.6776    0.0000 H   0  0  0  0  0  0  0  0  0  0  0  0
    3.2193   -1.8273    0.0000 H   0  0  0  0  0  0  0  0  0  0  0  0
   -1.2642   -5.2070    0.0000 H   0  0  0  0  0  0  0  0  0  0  0  0
    0.7669    0.3808    0.0000 H   0  0  0  0  0  0  0  0  0  0  0  0
    3.5624   -0.2134    0.0000 H   0  0  0  0  0  0  0  0  0  0  0  0
    0.3497   -5.5500    0.0000 H   0  0  0  0  0  0  0  0  0  0  0  0
   -2.6447   -1.1382    0.0000 H   0  0  0  0  0  0  0  0  0  0  0  0
    1.3374   -3.2829    0.0000 H   0  0  0  0  0  0  0  0  0  0  0  0
  1  2  1  0  0  0  0
  2  3  2  0  0  0  0
  2  4  1  0  0  0  0
  4  5  1  0  0  0  0
  5  6  1  0  0  0  0
  6  7  1  0  0  0  0
  7  8  4  0  0  0  0
  7 22  4  0  0  0  0
  8  9  1  0  0  0  0
  8 16  4  0  0  0  0
  9 10  1  0  0  0  0
 10 11  4  0  0  0  0
 10 15  4  0  0  0  0
 11 12  4  0  0  0  0
 12 13  4  0  0  0  0
 13 14  4  0  0  0  0
 14 15  4  0  0  0  0
 16 17  4  0  0  0  0
 17 18  4  0  0  0  0
 17 22  4  0  0  0  0
 18 19  4  0  0  0  0
 19 20  4  0  0  0  0
 20 21  4  0  0  0  0
 21 22  4  0  0  0  0
 21 23  1  0  0  0  0
 12 24  1  0  0  0  0
 15 25  1  0  0  0  0
  5 26  1  0  0  0  0
  5 27  1  0  0  0  0
 18 28  1  0  0  0  0
  9 29  1  0  0  0  0
  9 30  1  0  0  0  0
  6 31  1  0  0  0  0
  6 32  1  0  0  0  0
  1 33  1  0  0  0  0
  1 34  1  0  0  0  0
  1 35  1  0  0  0  0
 14 36  1  0  0  0  0
 20 37  1  0  0  0  0
 11 38  1  0  0  0  0
 13 39  1  0  0  0  0
 19 40  1  0  0  0  0
  4 41  1  0  0  0  0
 16 42  1  0  0  0  0
M  END
> <Molecule ChEMBL ID>
CHEMBL286615

> <Class(50)>
0

> <Class(80)>
0

>  <salt>
false

>  <StandardizerResult>
Tautomerize (ID: Tautomerize)
Neutralize (ID: Neutralize)
Aromatize (ID: Aromatize)
Wedge Clean (ID: Wedge Clean)
Clean 2D (ID: Clean2D)

$$$$
CHEMBL90568
  Mrv2010 08032110442D          

 34 36  0  0  0  0            999 V2000
   -2.6659   -3.0133    0.0000 C   0  0  0  0  0  0  0  0  0  0  0  0
   -2.6659   -2.1883    0.0000 O   0  0  0  0  0  0  0  0  0  0  0  0
   -1.9514   -1.7758    0.0000 C   0  0  0  0  0  0  0  0  0  0  0  0
   -1.9514   -0.9508    0.0000 C   0  0  0  0  0  0  0  0  0  0  0  0
   -1.2370   -0.5383    0.0000 C   0  0  0  0  0  0  0  0  0  0  0  0
   -0.5225   -0.9508    0.0000 C   0  0  0  0  0  0  0  0  0  0  0  0
    0.1920   -0.5383    0.0000 C   0  0  0  0  0  0  0  0  0  0  0  0
    0.1920    0.2867    0.0000 C   0  0  0  0  0  0  0  0  0  0  0  0
    0.9065    0.6992    0.0000 C   0  0  0  0  0  0  0  0  0  0  0  0
    0.9065    1.5242    0.0000 O   0  0  0  0  0  0  0  0  0  0  0  0
    1.6209    0.2867    0.0000 C   0  0  0  0  0  0  0  0  0  0  0  0
    2.3354    0.6992    0.0000 C   0  0  0  0  0  0  0  0  0  0  0  0
    2.3354    1.5242    0.0000 O   0  0  0  0  0  0  0  0  0  0  0  0
    3.0499    0.2867    0.0000 C   0  0  0  0  0  0  0  0  0  0  0  0
    3.0499   -0.5383    0.0000 C   0  0  0  0  0  0  0  0  0  0  0  0
    3.7643   -0.9508    0.0000 O   0  0  0  0  0  0  0  0  0  0  0  0
    2.3354   -0.9508    0.0000 C   0  0  0  0  0  0  0  0  0  0  0  0
    1.6209   -0.5383    0.0000 C   0  0  0  0  0  0  0  0  0  0  0  0
    0.9065   -0.9508    0.0000 O   0  0  0  0  0  0  0  0  0  0  0  0
   -0.5225   -1.7758    0.0000 C   0  0  0  0  0  0  0  0  0  0  0  0
   -1.2370   -2.1883    0.0000 C   0  0  0  0  0  0  0  0  0  0  0  0
   -1.2370   -3.0133    0.0000 O   0  0  0  0  0  0  0  0  0  0  0  0
    3.0499    1.9367    0.0000 H   0  0  0  0  0  0  0  0  0  0  0  0
    0.1920   -2.1883    0.0000 H   0  0  0  0  0  0  0  0  0  0  0  0
   -0.6536   -3.5966    0.0000 H   0  0  0  0  0  0  0  0  0  0  0  0
   -1.2370    0.2867    0.0000 H   0  0  0  0  0  0  0  0  0  0  0  0
    3.7643   -1.7758    0.0000 H   0  0  0  0  0  0  0  0  0  0  0  0
   -0.5225    0.6992    0.0000 H   0  0  0  0  0  0  0  0  0  0  0  0
   -3.4909   -3.0133    0.0000 H   0  0  0  0  0  0  0  0  0  0  0  0
   -2.6659   -3.8383    0.0000 H   0  0  0  0  0  0  0  0  0  0  0  0
   -1.8409   -3.0133    0.0000 H   0  0  0  0  0  0  0  0  0  0  0  0
   -2.6659   -0.5383    0.0000 H   0  0  0  0  0  0  0  0  0  0  0  0
    2.3354   -1.7758    0.0000 H   0  0  0  0  0  0  0  0  0  0  0  0
    3.7643    0.6992    0.0000 H   0  0  0  0  0  0  0  0  0  0  0  0
  1  2  1  0  0  0  0
  2  3  1  0  0  0  0
  3  4  4  0  0  0  0
  3 21  4  0  0  0  0
  4  5  4  0  0  0  0
  5  6  4  0  0  0  0
  6  7  1  0  0  0  0
  6 20  4  0  0  0  0
  7  8  2  0  0  0  0
  7 19  1  0  0  0  0
  8  9  1  0  0  0  0
  9 10  2  0  0  0  0
  9 11  1  0  0  0  0
 11 12  4  0  0  0  0
 11 18  4  0  0  0  0
 12 13  1  0  0  0  0
 12 14  4  0  0  0  0
 14 15  4  0  0  0  0
 15 16  1  0  0  0  0
 15 17  4  0  0  0  0
 17 18  4  0  0  0  0
 18 19  1  0  0  0  0
 20 21  4  0  0  0  0
 21 22  1  0  0  0  0
 13 23  1  0  0  0  0
 20 24  1  0  0  0  0
 22 25  1  0  0  0  0
  5 26  1  0  0  0  0
 16 27  1  0  0  0  0
  8 28  1  0  0  0  0
  1 29  1  0  0  0  0
  1 30  1  0  0  0  0
  1 31  1  0  0  0  0
  4 32  1  0  0  0  0
 17 33  1  0  0  0  0
 14 34  1  0  0  0  0
M  END
> <Molecule ChEMBL ID>
CHEMBL90568

> <Class(50)>
0

> <Class(80)>
0

>  <salt>
false

>  <StandardizerResult>
Tautomerize (ID: Tautomerize)
Neutralize (ID: Neutralize)
Aromatize (ID: Aromatize)
Wedge Clean (ID: Wedge Clean)
Clean 2D (ID: Clean2D)

$$$$
CHEMBL45245
  Mrv2010 08032110442D          

 24 26  0  0  0  0            999 V2000
   -1.2891    0.8038    0.0000 O   0  0  0  0  0  0  0  0  0  0  0  0
   -0.8766    0.0893    0.0000 C   0  0  0  0  0  0  0  0  0  0  0  0
   -0.0516    0.0893    0.0000 N   0  0  0  0  0  0  0  0  0  0  0  0
    0.3609   -0.6252    0.0000 C   0  0  0  0  0  0  0  0  0  0  0  0
    1.1859   -0.6252    0.0000 C   0  0  0  0  0  0  0  0  0  0  0  0
    1.5984   -1.3396    0.0000 C   0  0  0  0  0  0  0  0  0  0  0  0
    1.1859   -2.0541    0.0000 C   0  0  0  0  0  0  0  0  0  0  0  0
    0.3609   -2.0541    0.0000 C   0  0  0  0  0  0  0  0  0  0  0  0
   -0.0516   -1.3396    0.0000 C   0  0  0  0  0  0  0  0  0  0  0  0
   -0.8766   -1.3396    0.0000 C   0  0  0  0  0  0  0  0  0  0  0  0
   -1.2891   -2.0541    0.0000 C   0  0  0  0  0  0  0  0  0  0  0  0
   -2.1141   -2.0541    0.0000 C   0  0  0  0  0  0  0  0  0  0  0  0
   -2.5266   -1.3396    0.0000 C   0  0  0  0  0  0  0  0  0  0  0  0
   -2.1141   -0.6252    0.0000 C   0  0  0  0  0  0  0  0  0  0  0  0
   -1.2891   -0.6252    0.0000 C   0  0  0  0  0  0  0  0  0  0  0  0
    0.3609    0.8038    0.0000 H   0  0  0  0  0  0  0  0  0  0  0  0
   -0.8766   -2.7686    0.0000 H   0  0  0  0  0  0  0  0  0  0  0  0
   -2.5266   -2.7686    0.0000 H   0  0  0  0  0  0  0  0  0  0  0  0
    1.5984   -2.7686    0.0000 H   0  0  0  0  0  0  0  0  0  0  0  0
    2.4234   -1.3396    0.0000 H   0  0  0  0  0  0  0  0  0  0  0  0
   -0.0516   -2.7686    0.0000 H   0  0  0  0  0  0  0  0  0  0  0  0
    1.5984    0.0893    0.0000 H   0  0  0  0  0  0  0  0  0  0  0  0
   -2.5266    0.0893    0.0000 H   0  0  0  0  0  0  0  0  0  0  0  0
   -3.3516   -1.3396    0.0000 H   0  0  0  0  0  0  0  0  0  0  0  0
  1  2  2  0  0  0  0
  2  3  1  0  0  0  0
  2 15  1  0  0  0  0
  3  4  1  0  0  0  0
  4  5  4  0  0  0  0
  4  9  4  0  0  0  0
  5  6  4  0  0  0  0
  6  7  4  0  0  0  0
  7  8  4  0  0  0  0
  8  9  4  0  0  0  0
  9 10  1  0  0  0  0
 10 11  4  0  0  0  0
 10 15  4  0  0  0  0
 11 12  4  0  0  0  0
 12 13  4  0  0  0  0
 13 14  4  0  0  0  0
 14 15  4  0  0  0  0
  3 16  1  0  0  0  0
 11 17  1  0  0  0  0
 12 18  1  0  0  0  0
  7 19  1  0  0  0  0
  6 20  1  0  0  0  0
  8 21  1  0  0  0  0
  5 22  1  0  0  0  0
 14 23  1  0  0  0  0
 13 24  1  0  0  0  0
M  END
> <Molecule ChEMBL ID>
CHEMBL45245

> <Class(50)>
0

> <Class(80)>
0

>  <salt>
false

>  <StandardizerResult>
Tautomerize (ID: Tautomerize)
Neutralize (ID: Neutralize)
Aromatize (ID: Aromatize)
Wedge Clean (ID: Wedge Clean)
Clean 2D (ID: Clean2D)

$$$$
CHEMBL553725
  Mrv2010 08032110442D          

 24 26  0  0  0  0            999 V2000
    1.0797    1.2325    0.0000 C   0  0  0  0  0  0  0  0  0  0  0  0
    1.0797    0.4075    0.0000 C   0  0  0  0  0  0  0  0  0  0  0  0
    0.3652   -0.0050    0.0000 C   0  0  0  0  0  0  0  0  0  0  0  0
   -0.3493    0.4075    0.0000 C   0  0  0  0  0  0  0  0  0  0  0  0
   -1.1339    0.1526    0.0000 O   0  0  0  0  0  0  0  0  0  0  0  0
   -1.6188    0.8200    0.0000 C   0  0  0  0  0  0  0  0  0  0  0  0
   -2.4438    0.8200    0.0000 C   0  0  0  0  0  0  0  0  0  0  0  0
   -2.9287    0.1526    0.0000 N   0  0  0  0  0  0  0  0  0  0  0  0
   -3.7134    0.4075    0.0000 C   0  0  0  0  0  0  0  0  0  0  0  0
   -3.7134    1.2325    0.0000 C   0  0  0  0  0  0  0  0  0  0  0  0
   -2.9287    1.4874    0.0000 N   0  0  0  0  0  0  0  0  0  0  0  0
   -1.1339    1.4874    0.0000 C   0  0  0  0  0  0  0  0  0  0  0  0
   -0.3493    1.2325    0.0000 C   0  0  0  0  0  0  0  0  0  0  0  0
    0.3652    1.6450    0.0000 C   0  0  0  0  0  0  0  0  0  0  0  0
    0.3652   -0.8300    0.0000 H   0  0  0  0  0  0  0  0  0  0  0  0
    1.7941   -0.0050    0.0000 H   0  0  0  0  0  0  0  0  0  0  0  0
   -4.5303    0.2927    0.0000 H   0  0  0  0  0  0  0  0  0  0  0  0
   -4.0750   -0.3340    0.0000 H   0  0  0  0  0  0  0  0  0  0  0  0
    1.7941    1.6450    0.0000 H   0  0  0  0  0  0  0  0  0  0  0  0
   -4.0750    1.9740    0.0000 H   0  0  0  0  0  0  0  0  0  0  0  0
   -4.5303    1.3473    0.0000 H   0  0  0  0  0  0  0  0  0  0  0  0
   -1.3888    2.2721    0.0000 H   0  0  0  0  0  0  0  0  0  0  0  0
   -2.6738    2.2721    0.0000 H   0  0  0  0  0  0  0  0  0  0  0  0
    0.3652    2.4700    0.0000 H   0  0  0  0  0  0  0  0  0  0  0  0
  1  2  4  0  0  0  0
  1 14  4  0  0  0  0
  2  3  4  0  0  0  0
  3  4  4  0  0  0  0
  4  5  4  0  0  0  0
  4 13  4  0  0  0  0
  5  6  4  0  0  0  0
  6  7  1  0  0  0  0
  6 12  4  0  0  0  0
  7  8  2  0  0  0  0
  7 11  1  0  0  0  0
  8  9  1  0  0  0  0
  9 10  1  0  0  0  0
 10 11  1  0  0  0  0
 12 13  4  0  0  0  0
 13 14  4  0  0  0  0
  3 15  1  0  0  0  0
  2 16  1  0  0  0  0
  9 17  1  0  0  0  0
  9 18  1  0  0  0  0
  1 19  1  0  0  0  0
 10 20  1  0  0  0  0
 10 21  1  0  0  0  0
 12 22  1  0  0  0  0
 11 23  1  0  0  0  0
 14 24  1  0  0  0  0
M  END
> <Molecule ChEMBL ID>
CHEMBL553725

> <Class(50)>
0

> <Class(80)>
0

>  <salt>
true

>  <StandardizerResult>
Tautomerize (ID: Tautomerize)
Neutralize (ID: Neutralize)
Aromatize (ID: Aromatize)
Wedge Clean (ID: Wedge Clean)
Clean 2D (ID: Clean2D)

$$$$
CHEMBL1085100
  Mrv2010 08032110442D          

 24 26  0  0  0  0            999 V2000
   -0.6273   -0.4452    0.0000 C   0  0  0  0  0  0  0  0  0  0  0  0
    0.1977   -0.4452    0.0000 N   0  0  0  0  0  0  0  0  0  0  0  0
    0.7121   -1.0902    0.0000 C   0  0  0  0  0  0  0  0  0  0  0  0
    1.5005   -0.8470    0.0000 C   0  0  0  0  0  0  0  0  0  0  0  0
    2.1052   -1.4082    0.0000 C   0  0  0  0  0  0  0  0  0  0  0  0
    1.9216   -2.2125    0.0000 C   0  0  0  0  0  0  0  0  0  0  0  0
    1.1333   -2.4557    0.0000 C   0  0  0  0  0  0  0  0  0  0  0  0
    0.5285   -1.8945    0.0000 C   0  0  0  0  0  0  0  0  0  0  0  0
   -0.2148   -2.2525    0.0000 O   0  0  0  0  0  0  0  0  0  0  0  0
   -0.9581   -1.8945    0.0000 C   0  0  0  0  0  0  0  0  0  0  0  0
   -1.5628   -2.4557    0.0000 C   0  0  0  0  0  0  0  0  0  0  0  0
   -2.3512   -2.2125    0.0000 C   0  0  0  0  0  0  0  0  0  0  0  0
   -2.5348   -1.4082    0.0000 C   0  0  0  0  0  0  0  0  0  0  0  0
   -1.9300   -0.8470    0.0000 C   0  0  0  0  0  0  0  0  0  0  0  0
   -1.1416   -1.0902    0.0000 C   0  0  0  0  0  0  0  0  0  0  0  0
   -1.3793   -3.2600    0.0000 H   0  0  0  0  0  0  0  0  0  0  0  0
    2.8936   -1.1650    0.0000 H   0  0  0  0  0  0  0  0  0  0  0  0
   -3.3231   -1.1650    0.0000 H   0  0  0  0  0  0  0  0  0  0  0  0
    2.5264   -2.7736    0.0000 H   0  0  0  0  0  0  0  0  0  0  0  0
   -0.9852    0.2981    0.0000 H   0  0  0  0  0  0  0  0  0  0  0  0
    1.6840   -0.0427    0.0000 H   0  0  0  0  0  0  0  0  0  0  0  0
    0.9497   -3.2600    0.0000 H   0  0  0  0  0  0  0  0  0  0  0  0
   -2.1136   -0.0427    0.0000 H   0  0  0  0  0  0  0  0  0  0  0  0
   -2.9559   -2.7736    0.0000 H   0  0  0  0  0  0  0  0  0  0  0  0
  1  2  2  0  0  0  0
  1 15  1  0  0  0  0
  2  3  1  0  0  0  0
  3  4  4  0  0  0  0
  3  8  4  0  0  0  0
  4  5  4  0  0  0  0
  5  6  4  0  0  0  0
  6  7  4  0  0  0  0
  7  8  4  0  0  0  0
  8  9  1  0  0  0  0
  9 10  1  0  0  0  0
 10 11  4  0  0  0  0
 10 15  4  0  0  0  0
 11 12  4  0  0  0  0
 12 13  4  0  0  0  0
 13 14  4  0  0  0  0
 14 15  4  0  0  0  0
 11 16  1  0  0  0  0
  5 17  1  0  0  0  0
 13 18  1  0  0  0  0
  6 19  1  0  0  0  0
  1 20  1  0  0  0  0
  4 21  1  0  0  0  0
  7 22  1  0  0  0  0
 14 23  1  0  0  0  0
 12 24  1  0  0  0  0
M  END
> <Molecule ChEMBL ID>
CHEMBL1085100

> <Class(50)>
0

> <Class(80)>
0

>  <salt>
false

>  <StandardizerResult>
Tautomerize (ID: Tautomerize)
Neutralize (ID: Neutralize)
Aromatize (ID: Aromatize)
Wedge Clean (ID: Wedge Clean)
Clean 2D (ID: Clean2D)

$$$$
CHEMBL521582
  Mrv2010 08032110442D          

 59 60  0  0  0  0            999 V2000
   -0.5220    5.1341    0.0000 C   0  0  0  0  0  0  0  0  0  0  0  0
   -0.5220    4.3091    0.0000 C   0  0  0  0  0  0  0  0  0  0  0  0
    0.1925    3.8966    0.0000 C   0  0  0  0  0  0  0  0  0  0  0  0
    0.1925    3.0716    0.0000 N   0  0  0  0  0  0  0  0  0  0  0  0
   -0.5220    2.6591    0.0000 C   0  0  0  0  0  0  0  0  0  0  0  0
   -0.5220    1.8341    0.0000 C   0  0  0  0  0  0  0  0  0  0  0  0
   -1.2364    1.4216    0.0000 C   0  0  0  0  0  0  0  0  0  0  0  0
    0.9070    2.6591    0.0000 C   0  0  0  0  0  0  0  0  0  0  0  0
    0.9070    1.8341    0.0000 C   0  0  0  0  0  0  0  0  0  0  0  0
    1.6214    1.4216    0.0000 C   0  0  0  0  0  0  0  0  0  0  0  0
    2.3359    1.8341    0.0000 C   0  0  0  0  0  0  0  0  0  0  0  0
    3.0504    1.4216    0.0000 C   0  0  0  0  0  0  0  0  0  0  0  0
    3.0504    0.5966    0.0000 C   0  0  0  0  0  0  0  0  0  0  0  0
    3.7649    0.1841    0.0000 O   0  0  0  0  0  0  0  0  0  0  0  0
    3.7649   -0.6409    0.0000 C   0  0  0  0  0  0  0  0  0  0  0  0
    2.3359    0.1841    0.0000 C   0  0  0  0  0  0  0  0  0  0  0  0
    2.3359   -0.6409    0.0000 O   0  0  0  0  0  0  0  0  0  0  0  0
    1.6214   -1.0534    0.0000 C   0  0  0  0  0  0  0  0  0  0  0  0
    1.6214   -1.8784    0.0000 C   0  0  0  0  0  0  0  0  0  0  0  0
    2.3359   -2.2909    0.0000 C   0  0  0  0  0  0  0  0  0  0  0  0
    3.0504   -1.8784    0.0000 C   0  0  0  0  0  0  0  0  0  0  0  0
    3.7649   -2.2909    0.0000 C   0  0  0  0  0  0  0  0  0  0  0  0
    3.7649   -3.1159    0.0000 C   0  0  0  0  0  0  0  0  0  0  0  0
    3.0504   -3.5284    0.0000 C   0  0  0  0  0  0  0  0  0  0  0  0
    2.3359   -3.1159    0.0000 C   0  0  0  0  0  0  0  0  0  0  0  0
    1.6214    0.5966    0.0000 C   0  0  0  0  0  0  0  0  0  0  0  0
   -1.6489    2.1361    0.0000 H   0  0  0  0  0  0  0  0  0  0  0  0
   -1.9509    1.0091    0.0000 H   0  0  0  0  0  0  0  0  0  0  0  0
   -0.8239    0.7071    0.0000 H   0  0  0  0  0  0  0  0  0  0  0  0
    1.7306    2.7071    0.0000 H   0  0  0  0  0  0  0  0  0  0  0  0
    1.3603    3.3484    0.0000 H   0  0  0  0  0  0  0  0  0  0  0  0
   -0.0686    1.1448    0.0000 H   0  0  0  0  0  0  0  0  0  0  0  0
    0.3016    1.7861    0.0000 H   0  0  0  0  0  0  0  0  0  0  0  0
    2.7484    2.5486    0.0000 H   0  0  0  0  0  0  0  0  0  0  0  0
    1.0161    3.9446    0.0000 H   0  0  0  0  0  0  0  0  0  0  0  0
    0.6459    4.5859    0.0000 H   0  0  0  0  0  0  0  0  0  0  0  0
    4.5899   -2.2909    0.0000 H   0  0  0  0  0  0  0  0  0  0  0  0
    1.6214   -3.5284    0.0000 H   0  0  0  0  0  0  0  0  0  0  0  0
    0.7978   -1.9264    0.0000 H   0  0  0  0  0  0  0  0  0  0  0  0
    1.1681   -2.5677    0.0000 H   0  0  0  0  0  0  0  0  0  0  0  0
    1.1681   -0.3641    0.0000 H   0  0  0  0  0  0  0  0  0  0  0  0
    0.7978   -1.0054    0.0000 H   0  0  0  0  0  0  0  0  0  0  0  0
    3.0504   -4.3534    0.0000 H   0  0  0  0  0  0  0  0  0  0  0  0
    0.3030    5.1341    0.0000 H   0  0  0  0  0  0  0  0  0  0  0  0
   -0.5220    5.9591    0.0000 H   0  0  0  0  0  0  0  0  0  0  0  0
   -1.3470    5.1341    0.0000 H   0  0  0  0  0  0  0  0  0  0  0  0
    3.7649    1.8341    0.0000 H   0  0  0  0  0  0  0  0  0  0  0  0
    2.6379   -1.1639    0.0000 H   0  0  0  0  0  0  0  0  0  0  0  0
    0.9070    0.1841    0.0000 H   0  0  0  0  0  0  0  0  0  0  0  0
   -1.3456    4.2611    0.0000 H   0  0  0  0  0  0  0  0  0  0  0  0
   -0.9753    3.6198    0.0000 H   0  0  0  0  0  0  0  0  0  0  0  0
    0.7251    1.0294    0.0000 H   0  0  0  0  0  0  0  0  0  0  0  0
    1.6214    2.2466    0.0000 H   0  0  0  0  0  0  0  0  0  0  0  0
   -0.9753    3.3484    0.0000 H   0  0  0  0  0  0  0  0  0  0  0  0
   -1.3456    2.7071    0.0000 H   0  0  0  0  0  0  0  0  0  0  0  0
    4.4793   -3.5284    0.0000 H   0  0  0  0  0  0  0  0  0  0  0  0
    2.9399   -0.6409    0.0000 H   0  0  0  0  0  0  0  0  0  0  0  0
    3.7649   -1.4659    0.0000 H   0  0  0  0  0  0  0  0  0  0  0  0
    4.5899   -0.6409    0.0000 H   0  0  0  0  0  0  0  0  0  0  0  0
  1  2  1  0  0  0  0
  2  3  1  0  0  0  0
  3  4  1  0  0  0  0
  4  5  1  0  0  0  0
  4  8  1  0  0  0  0
  5  6  1  0  0  0  0
  6  7  1  0  0  0  0
  8  9  1  0  0  0  0
  9 10  1  0  0  0  0
 10 11  4  0  0  0  0
 10 26  4  0  0  0  0
 11 12  4  0  0  0  0
 12 13  4  0  0  0  0
 13 14  1  0  0  0  0
 13 16  4  0  0  0  0
 14 15  1  0  0  0  0
 16 17  1  0  0  0  0
 16 26  4  0  0  0  0
 17 18  1  0  0  0  0
 18 19  1  0  0  0  0
 19 20  1  0  0  0  0
 20 21  4  0  0  0  0
 20 25  4  0  0  0  0
 21 22  4  0  0  0  0
 22 23  4  0  0  0  0
 23 24  4  0  0  0  0
 24 25  4  0  0  0  0
  7 27  1  0  0  0  0
  7 28  1  0  0  0  0
  7 29  1  0  0  0  0
  8 30  1  0  0  0  0
  8 31  1  0  0  0  0
  6 32  1  0  0  0  0
  6 33  1  0  0  0  0
 11 34  1  0  0  0  0
  3 35  1  0  0  0  0
  3 36  1  0  0  0  0
 22 37  1  0  0  0  0
 25 38  1  0  0  0  0
 19 39  1  0  0  0  0
 19 40  1  0  0  0  0
 18 41  1  0  0  0  0
 18 42  1  0  0  0  0
 24 43  1  0  0  0  0
  1 44  1  0  0  0  0
  1 45  1  0  0  0  0
  1 46  1  0  0  0  0
 12 47  1  0  0  0  0
 21 48  1  0  0  0  0
 26 49  1  0  0  0  0
  2 50  1  0  0  0  0
  2 51  1  0  0  0  0
  9 52  1  0  0  0  0
  9 53  1  0  0  0  0
  5 54  1  0  0  0  0
  5 55  1  0  0  0  0
 23 56  1  0  0  0  0
 15 57  1  0  0  0  0
 15 58  1  0  0  0  0
 15 59  1  0  0  0  0
M  END
> <Molecule ChEMBL ID>
CHEMBL521582

> <Class(50)>
0

> <Class(80)>
0

>  <salt>
true

>  <StandardizerResult>
Tautomerize (ID: Tautomerize)
Neutralize (ID: Neutralize)
Aromatize (ID: Aromatize)
Wedge Clean (ID: Wedge Clean)
Clean 2D (ID: Clean2D)

$$$$
CHEMBL2146087
  Mrv2010 08032110442D          

 46 48  0  0  1  0            999 V2000
    2.5325    4.0988    0.0000 C   0  0  0  0  0  0  0  0  0  0  0  0
    2.5325    3.2738    0.0000 C   0  0  0  0  0  0  0  0  0  0  0  0
    1.8180    2.8613    0.0000 O   0  0  0  0  0  0  0  0  0  0  0  0
    1.8180    2.0363    0.0000 C   0  0  0  0  0  0  0  0  0  0  0  0
    2.5325    1.6238    0.0000 C   0  0  0  0  0  0  0  0  0  0  0  0
    2.5325    0.7988    0.0000 C   0  0  0  0  0  0  0  0  0  0  0  0
    1.8180    0.3863    0.0000 C   0  0  0  0  0  0  0  0  0  0  0  0
    1.1035    0.7988    0.0000 C   0  0  0  0  0  0  0  0  0  0  0  0
    1.1035    1.6238    0.0000 C   0  0  0  0  0  0  0  0  0  0  0  0
    0.3890    2.0363    0.0000 O   0  0  0  0  0  0  0  0  0  0  0  0
   -0.3254    1.6238    0.0000 C   0  0  1  0  0  0  0  0  0  0  0  0
   -1.0399    2.0363    0.0000 C   0  0  0  0  0  0  0  0  0  0  0  0
   -1.7544    1.6238    0.0000 C   0  0  0  0  0  0  0  0  0  0  0  0
   -2.4688    2.0363    0.0000 C   0  0  0  0  0  0  0  0  0  0  0  0
   -2.4688    2.8613    0.0000 C   0  0  0  0  0  0  0  0  0  0  0  0
   -1.7544    3.2738    0.0000 C   0  0  0  0  0  0  0  0  0  0  0  0
   -1.0399    2.8613    0.0000 C   0  0  0  0  0  0  0  0  0  0  0  0
   -0.3254    0.7988    0.0000 C   0  0  1  0  0  0  0  0  0  0  0  0
    0.3890    0.3863    0.0000 C   0  0  0  0  0  0  0  0  0  0  0  0
    0.3890   -0.4387    0.0000 N   0  0  0  0  0  0  0  0  0  0  0  0
   -0.3254   -0.8512    0.0000 C   0  0  0  0  0  0  0  0  0  0  0  0
   -1.0399   -0.4387    0.0000 C   0  0  0  0  0  0  0  0  0  0  0  0
   -1.0399    0.3863    0.0000 O   0  0  0  0  0  0  0  0  0  0  0  0
   -0.3254    2.4488    0.0000 H   0  0  0  0  0  0  0  0  0  0  0  0
    3.2469    2.0363    0.0000 H   0  0  0  0  0  0  0  0  0  0  0  0
    0.3890    1.2113    0.0000 H   0  0  0  0  0  0  0  0  0  0  0  0
   -1.0399    1.2113    0.0000 H   0  0  0  0  0  0  0  0  0  0  0  0
    3.2469    0.3863    0.0000 H   0  0  0  0  0  0  0  0  0  0  0  0
   -3.1833    1.6238    0.0000 H   0  0  0  0  0  0  0  0  0  0  0  0
   -1.7544    4.0988    0.0000 H   0  0  0  0  0  0  0  0  0  0  0  0
    0.8015   -1.1532    0.0000 H   0  0  0  0  0  0  0  0  0  0  0  0
    3.3575    4.0988    0.0000 H   0  0  0  0  0  0  0  0  0  0  0  0
    2.5325    4.9238    0.0000 H   0  0  0  0  0  0  0  0  0  0  0  0
    1.7075    4.0988    0.0000 H   0  0  0  0  0  0  0  0  0  0  0  0
    1.1035   -0.0262    0.0000 H   0  0  0  0  0  0  0  0  0  0  0  0
   -0.3254   -0.0262    0.0000 H   0  0  0  0  0  0  0  0  0  0  0  0
   -1.8635   -0.4867    0.0000 H   0  0  0  0  0  0  0  0  0  0  0  0
   -1.4932   -1.1280    0.0000 H   0  0  0  0  0  0  0  0  0  0  0  0
   -0.6274    3.5757    0.0000 H   0  0  0  0  0  0  0  0  0  0  0  0
   -0.6957   -1.5885    0.0000 H   0  0  0  0  0  0  0  0  0  0  0  0
    0.0448   -1.5885    0.0000 H   0  0  0  0  0  0  0  0  0  0  0  0
    1.8180   -0.4387    0.0000 H   0  0  0  0  0  0  0  0  0  0  0  0
    2.9858    2.5845    0.0000 H   0  0  0  0  0  0  0  0  0  0  0  0
    3.3561    3.2258    0.0000 H   0  0  0  0  0  0  0  0  0  0  0  0
   -3.1833    3.2738    0.0000 H   0  0  0  0  0  0  0  0  0  0  0  0
   -1.7544    0.7988    0.0000 H   0  0  0  0  0  0  0  0  0  0  0  0
  1  2  1  0  0  0  0
  2  3  1  0  0  0  0
  3  4  1  0  0  0  0
  4  5  4  0  0  0  0
  4  9  4  0  0  0  0
  5  6  4  0  0  0  0
  6  7  4  0  0  0  0
  7  8  4  0  0  0  0
  8  9  4  0  0  0  0
  9 10  1  0  0  0  0
 11 10  1  0  0  0  0
 11 12  1  0  0  0  0
 11 18  1  0  0  0  0
 12 13  4  0  0  0  0
 12 17  4  0  0  0  0
 13 14  4  0  0  0  0
 14 15  4  0  0  0  0
 15 16  4  0  0  0  0
 16 17  4  0  0  0  0
 18 19  1  0  0  0  0
 18 23  1  0  0  0  0
 19 20  1  0  0  0  0
 20 21  1  0  0  0  0
 21 22  1  0  0  0  0
 22 23  1  0  0  0  0
 11 24  1  1  0  0  0
  5 25  1  0  0  0  0
  8 26  1  0  0  0  0
 18 27  1  6  0  0  0
  6 28  1  0  0  0  0
 14 29  1  0  0  0  0
 16 30  1  0  0  0  0
 20 31  1  0  0  0  0
  1 32  1  0  0  0  0
  1 33  1  0  0  0  0
  1 34  1  0  0  0  0
 19 35  1  0  0  0  0
 19 36  1  0  0  0  0
 22 37  1  0  0  0  0
 22 38  1  0  0  0  0
 17 39  1  0  0  0  0
 21 40  1  0  0  0  0
 21 41  1  0  0  0  0
  7 42  1  0  0  0  0
  2 43  1  0  0  0  0
  2 44  1  0  0  0  0
 15 45  1  0  0  0  0
 13 46  1  0  0  0  0
M  END
> <Molecule ChEMBL ID>
CHEMBL2146087

> <Class(50)>
0

> <Class(80)>
0

>  <salt>
true

>  <StandardizerResult>
Tautomerize (ID: Tautomerize)
Transform (ID: Transform NO2 (1))
Aromatize (ID: Aromatize)
Wedge Clean (ID: Wedge Clean)
Clean 2D (ID: Clean2D)

$$$$
CHEMBL1736151
  Mrv2010 08032110442D          

 51 52  0  0  0  0            999 V2000
   -2.0909   -0.5351    0.0000 C   0  0  0  0  0  0  0  0  0  0  0  0
   -1.2659   -0.5351    0.0000 C   0  0  0  0  0  0  0  0  0  0  0  0
   -0.8534    0.1794    0.0000 N   0  0  0  0  0  0  0  0  0  0  0  0
   -1.2659    0.8938    0.0000 C   0  0  0  0  0  0  0  0  0  0  0  0
   -0.8534    1.6083    0.0000 C   0  0  0  0  0  0  0  0  0  0  0  0
   -0.0284    0.1794    0.0000 C   0  0  0  0  0  0  0  0  0  0  0  0
    0.3841    0.8938    0.0000 C   0  0  0  0  0  0  0  0  0  0  0  0
    1.2091    0.8938    0.0000 O   0  0  0  0  0  0  0  0  0  0  0  0
    1.6216    1.6083    0.0000 C   0  0  0  0  0  0  0  0  0  0  0  0
    1.2091    2.3228    0.0000 C   0  0  0  0  0  0  0  0  0  0  0  0
    1.6216    3.0372    0.0000 C   0  0  0  0  0  0  0  0  0  0  0  0
    2.4466    3.0372    0.0000 C   0  0  0  0  0  0  0  0  0  0  0  0
    2.8591    2.3228    0.0000 C   0  0  0  0  0  0  0  0  0  0  0  0
    2.4466    1.6083    0.0000 C   0  0  0  0  0  0  0  0  0  0  0  0
    2.8591    0.8938    0.0000 C   0  0  0  0  0  0  0  0  0  0  0  0
    3.6841    0.8938    0.0000 O   0  0  0  0  0  0  0  0  0  0  0  0
    2.4466    0.1794    0.0000 C   0  0  0  0  0  0  0  0  0  0  0  0
    2.8591   -0.5351    0.0000 C   0  0  0  0  0  0  0  0  0  0  0  0
    3.6841   -0.5351    0.0000 C   0  0  0  0  0  0  0  0  0  0  0  0
    4.0966    0.1794    0.0000 C   0  0  0  0  0  0  0  0  0  0  0  0
    4.9216    0.1794    0.0000 C   0  0  0  0  0  0  0  0  0  0  0  0
    5.3341   -0.5351    0.0000 C   0  0  0  0  0  0  0  0  0  0  0  0
    4.9216   -1.2496    0.0000 C   0  0  0  0  0  0  0  0  0  0  0  0
    4.0966   -1.2496    0.0000 C   0  0  0  0  0  0  0  0  0  0  0  0
    2.1698   -0.9885    0.0000 H   0  0  0  0  0  0  0  0  0  0  0  0
    2.8111   -1.3587    0.0000 H   0  0  0  0  0  0  0  0  0  0  0  0
    6.1591   -0.5351    0.0000 H   0  0  0  0  0  0  0  0  0  0  0  0
   -2.0909    0.2899    0.0000 H   0  0  0  0  0  0  0  0  0  0  0  0
   -2.9159   -0.5351    0.0000 H   0  0  0  0  0  0  0  0  0  0  0  0
   -2.0909   -1.3601    0.0000 H   0  0  0  0  0  0  0  0  0  0  0  0
    0.5976    1.6907    0.0000 H   0  0  0  0  0  0  0  0  0  0  0  0
    0.7966    0.1794    0.0000 H   0  0  0  0  0  0  0  0  0  0  0  0
    5.3341   -1.9640    0.0000 H   0  0  0  0  0  0  0  0  0  0  0  0
    5.3341    0.8938    0.0000 H   0  0  0  0  0  0  0  0  0  0  0  0
   -1.2179   -1.3587    0.0000 H   0  0  0  0  0  0  0  0  0  0  0  0
   -0.5766   -0.9885    0.0000 H   0  0  0  0  0  0  0  0  0  0  0  0
   -0.1389    1.1958    0.0000 H   0  0  0  0  0  0  0  0  0  0  0  0
   -0.4409    2.3228    0.0000 H   0  0  0  0  0  0  0  0  0  0  0  0
   -1.5679    2.0208    0.0000 H   0  0  0  0  0  0  0  0  0  0  0  0
    3.6841    2.3228    0.0000 H   0  0  0  0  0  0  0  0  0  0  0  0
    1.2091    3.7517    0.0000 H   0  0  0  0  0  0  0  0  0  0  0  0
    0.5504    2.8196    0.0000 H   0  0  0  0  0  0  0  0  0  0  0  0
    3.2716    0.1794    0.0000 H   0  0  0  0  0  0  0  0  0  0  0  0
    0.0196   -0.6442    0.0000 H   0  0  0  0  0  0  0  0  0  0  0  0
    0.6609   -0.2740    0.0000 H   0  0  0  0  0  0  0  0  0  0  0  0
    1.7093    0.5496    0.0000 H   0  0  0  0  0  0  0  0  0  0  0  0
    1.7093   -0.1909    0.0000 H   0  0  0  0  0  0  0  0  0  0  0  0
    3.6841   -1.9640    0.0000 H   0  0  0  0  0  0  0  0  0  0  0  0
   -2.0032    1.2641    0.0000 H   0  0  0  0  0  0  0  0  0  0  0  0
   -2.0032    0.5236    0.0000 H   0  0  0  0  0  0  0  0  0  0  0  0
    2.8591    3.7517    0.0000 H   0  0  0  0  0  0  0  0  0  0  0  0
  1  2  1  0  0  0  0
  2  3  1  0  0  0  0
  3  4  1  0  0  0  0
  3  6  1  0  0  0  0
  4  5  1  0  0  0  0
  6  7  1  0  0  0  0
  7  8  1  0  0  0  0
  8  9  1  0  0  0  0
  9 10  4  0  0  0  0
  9 14  4  0  0  0  0
 10 11  4  0  0  0  0
 11 12  4  0  0  0  0
 12 13  4  0  0  0  0
 13 14  4  0  0  0  0
 14 15  1  0  0  0  0
 15 16  2  0  0  0  0
 15 17  1  0  0  0  0
 17 18  1  0  0  0  0
 18 19  1  0  0  0  0
 19 20  4  0  0  0  0
 19 24  4  0  0  0  0
 20 21  4  0  0  0  0
 21 22  4  0  0  0  0
 22 23  4  0  0  0  0
 23 24  4  0  0  0  0
 18 25  1  0  0  0  0
 18 26  1  0  0  0  0
 22 27  1  0  0  0  0
  1 28  1  0  0  0  0
  1 29  1  0  0  0  0
  1 30  1  0  0  0  0
  7 31  1  0  0  0  0
  7 32  1  0  0  0  0
 23 33  1  0  0  0  0
 21 34  1  0  0  0  0
  2 35  1  0  0  0  0
  2 36  1  0  0  0  0
  5 37  1  0  0  0  0
  5 38  1  0  0  0  0
  5 39  1  0  0  0  0
 13 40  1  0  0  0  0
 11 41  1  0  0  0  0
 10 42  1  0  0  0  0
 20 43  1  0  0  0  0
  6 44  1  0  0  0  0
  6 45  1  0  0  0  0
 17 46  1  0  0  0  0
 17 47  1  0  0  0  0
 24 48  1  0  0  0  0
  4 49  1  0  0  0  0
  4 50  1  0  0  0  0
 12 51  1  0  0  0  0
M  END
> <Molecule ChEMBL ID>
CHEMBL1736151

> <Class(50)>
0

> <Class(80)>
0

>  <salt>
false

>  <StandardizerResult>
Tautomerize (ID: Tautomerize)
Neutralize (ID: Neutralize)
Aromatize (ID: Aromatize)
Wedge Clean (ID: Wedge Clean)
Clean 2D (ID: Clean2D)

$$$$
CHEMBL413965
  Mrv2010 08032110442D          

 28 29  0  0  0  0            999 V2000
   -1.1115    3.2699    0.0000 O   0  0  0  0  0  0  0  0  0  0  0  0
   -1.1115    2.4449    0.0000 C   0  0  0  0  0  0  0  0  0  0  0  0
   -1.8260    2.0324    0.0000 O   0  0  0  0  0  0  0  0  0  0  0  0
   -0.3971    2.0324    0.0000 C   0  0  0  0  0  0  0  0  0  0  0  0
   -0.3971    1.2074    0.0000 C   0  0  0  0  0  0  0  0  0  0  0  0
    0.3174    0.7949    0.0000 C   0  0  0  0  0  0  0  0  0  0  0  0
    0.3174   -0.0301    0.0000 C   0  0  0  0  0  0  0  0  0  0  0  0
   -0.3971   -0.4426    0.0000 C   0  0  0  0  0  0  0  0  0  0  0  0
   -0.3971   -1.2676    0.0000 C   0  0  0  0  0  0  0  0  0  0  0  0
    0.3174   -1.6801    0.0000 C   0  0  0  0  0  0  0  0  0  0  0  0
    0.3174   -2.5051    0.0000 C   0  0  0  0  0  0  0  0  0  0  0  0
   -0.3971   -2.9176    0.0000 C   0  0  0  0  0  0  0  0  0  0  0  0
   -1.1115   -2.5051    0.0000 C   0  0  0  0  0  0  0  0  0  0  0  0
   -1.1115   -1.6801    0.0000 C   0  0  0  0  0  0  0  0  0  0  0  0
   -1.1115   -0.0301    0.0000 C   0  0  0  0  0  0  0  0  0  0  0  0
   -1.1115    0.7949    0.0000 C   0  0  0  0  0  0  0  0  0  0  0  0
    1.0319   -1.2676    0.0000 H   0  0  0  0  0  0  0  0  0  0  0  0
    1.0319    1.2074    0.0000 H   0  0  0  0  0  0  0  0  0  0  0  0
   -0.3971   -3.7426    0.0000 H   0  0  0  0  0  0  0  0  0  0  0  0
   -1.8260    1.2074    0.0000 H   0  0  0  0  0  0  0  0  0  0  0  0
    0.4265    2.0804    0.0000 H   0  0  0  0  0  0  0  0  0  0  0  0
    0.0563    2.7217    0.0000 H   0  0  0  0  0  0  0  0  0  0  0  0
   -1.8260   -0.4426    0.0000 H   0  0  0  0  0  0  0  0  0  0  0  0
    1.0319   -0.4426    0.0000 H   0  0  0  0  0  0  0  0  0  0  0  0
    1.0319   -2.9176    0.0000 H   0  0  0  0  0  0  0  0  0  0  0  0
   -1.8260   -2.9176    0.0000 H   0  0  0  0  0  0  0  0  0  0  0  0
   -2.5405    2.4449    0.0000 H   0  0  0  0  0  0  0  0  0  0  0  0
   -1.8260   -1.2676    0.0000 H   0  0  0  0  0  0  0  0  0  0  0  0
  1  2  2  0  0  0  0
  2  3  1  0  0  0  0
  2  4  1  0  0  0  0
  4  5  1  0  0  0  0
  5  6  4  0  0  0  0
  5 16  4  0  0  0  0
  6  7  4  0  0  0  0
  7  8  4  0  0  0  0
  8  9  1  0  0  0  0
  8 15  4  0  0  0  0
  9 10  4  0  0  0  0
  9 14  4  0  0  0  0
 10 11  4  0  0  0  0
 11 12  4  0  0  0  0
 12 13  4  0  0  0  0
 13 14  4  0  0  0  0
 15 16  4  0  0  0  0
 10 17  1  0  0  0  0
  6 18  1  0  0  0  0
 12 19  1  0  0  0  0
 16 20  1  0  0  0  0
  4 21  1  0  0  0  0
  4 22  1  0  0  0  0
 15 23  1  0  0  0  0
  7 24  1  0  0  0  0
 11 25  1  0  0  0  0
 13 26  1  0  0  0  0
  3 27  1  0  0  0  0
 14 28  1  0  0  0  0
M  END
> <Molecule ChEMBL ID>
CHEMBL413965

> <Class(50)>
0

> <Class(80)>
0

>  <salt>
false

>  <StandardizerResult>
Tautomerize (ID: Tautomerize)
Neutralize (ID: Neutralize)
Aromatize (ID: Aromatize)
Wedge Clean (ID: Wedge Clean)
Clean 2D (ID: Clean2D)

$$$$
CHEMBL1600780
  Mrv2010 08032110442D          

 38 40  0  0  1  0            999 V2000
   -3.6119   -1.7325    0.0000 C   0  0  0  0  0  0  0  0  0  0  0  0
   -3.3569   -0.9479    0.0000 C   0  0  0  0  0  0  0  0  0  0  0  0
   -3.9090   -0.3348    0.0000 N   0  0  0  0  0  0  0  0  0  0  0  0
   -2.5500   -0.7764    0.0000 C   0  0  0  0  0  0  0  0  0  0  0  0
   -2.2950    0.0082    0.0000 C   0  0  0  0  0  0  0  0  0  0  0  0
   -2.7800    0.6757    0.0000 C   0  0  0  0  0  0  0  0  0  0  0  0
   -2.2950    1.3431    0.0000 N   0  0  0  0  0  0  0  0  0  0  0  0
   -1.5104    1.0882    0.0000 C   0  0  0  0  0  0  0  0  0  0  0  0
   -0.7959    1.5007    0.0000 C   0  0  0  0  0  0  0  0  0  0  0  0
   -0.0815    1.0882    0.0000 C   0  0  0  0  0  0  0  0  0  0  0  0
   -0.0815    0.2632    0.0000 C   0  0  0  0  0  0  0  0  0  0  0  0
    0.6330   -0.1493    0.0000 O   0  0  0  0  0  0  0  0  0  0  0  0
    1.3475    0.2632    0.0000 C   0  0  0  0  0  0  0  0  0  0  0  0
    2.0619   -0.1493    0.0000 C   0  0  0  0  0  0  0  0  0  0  0  0
    2.8156    0.1862    0.0000 C   0  0  0  0  0  0  0  0  0  0  0  0
    3.3676   -0.4269    0.0000 C   0  0  0  0  0  0  0  0  0  0  0  0
    2.9551   -1.1413    0.0000 C   0  0  0  0  0  0  0  0  0  0  0  0
    2.1482   -0.9698    0.0000 S   0  0  0  0  0  0  0  0  0  0  0  0
   -0.7959   -0.1493    0.0000 C   0  0  0  0  0  0  0  0  0  0  0  0
   -1.5104    0.2632    0.0000 C   0  0  0  0  0  0  0  0  0  0  0  0
   -4.3965   -1.4776    0.0000 H   0  0  0  0  0  0  0  0  0  0  0  0
   -3.8668   -2.5172    0.0000 H   0  0  0  0  0  0  0  0  0  0  0  0
   -2.8273   -1.9875    0.0000 H   0  0  0  0  0  0  0  0  0  0  0  0
   -2.3318   -1.5720    0.0000 H   0  0  0  0  0  0  0  0  0  0  0  0
   -1.7815   -1.0765    0.0000 H   0  0  0  0  0  0  0  0  0  0  0  0
   -0.7959    2.3257    0.0000 H   0  0  0  0  0  0  0  0  0  0  0  0
    3.2907   -1.8950    0.0000 H   0  0  0  0  0  0  0  0  0  0  0  0
   -2.1629    2.1575    0.0000 H   0  0  0  0  0  0  0  0  0  0  0  0
    0.6330    1.5007    0.0000 H   0  0  0  0  0  0  0  0  0  0  0  0
    1.7177    1.0004    0.0000 H   0  0  0  0  0  0  0  0  0  0  0  0
    0.9772    1.0004    0.0000 H   0  0  0  0  0  0  0  0  0  0  0  0
   -3.6089    0.4336    0.0000 H   0  0  0  0  0  0  0  0  0  0  0  0
   -4.4957    0.2451    0.0000 H   0  0  0  0  0  0  0  0  0  0  0  0
    2.9871    0.9932    0.0000 H   0  0  0  0  0  0  0  0  0  0  0  0
   -3.2548    1.3503    0.0000 H   0  0  0  0  0  0  0  0  0  0  0  0
    4.1881   -0.3406    0.0000 H   0  0  0  0  0  0  0  0  0  0  0  0
   -0.7959   -0.9743    0.0000 H   0  0  0  0  0  0  0  0  0  0  0  0
   -4.1639   -1.1195    0.0000 H   0  0  0  0  0  0  0  0  0  0  0  0
  1  2  1  0  0  0  0
  2  3  1  0  0  0  0
  2  4  1  0  0  0  0
  4  5  1  0  0  0  0
  5  6  4  0  0  0  0
  5 20  4  0  0  0  0
  6  7  4  0  0  0  0
  7  8  4  0  0  0  0
  8  9  4  0  0  0  0
  8 20  4  0  0  0  0
  9 10  4  0  0  0  0
 10 11  4  0  0  0  0
 11 12  1  0  0  0  0
 11 19  4  0  0  0  0
 12 13  1  0  0  0  0
 13 14  1  0  0  0  0
 14 15  4  0  0  0  0
 14 18  4  0  0  0  0
 15 16  4  0  0  0  0
 16 17  4  0  0  0  0
 17 18  4  0  0  0  0
 19 20  4  0  0  0  0
  1 21  1  0  0  0  0
  1 22  1  0  0  0  0
  1 23  1  0  0  0  0
  4 24  1  0  0  0  0
  4 25  1  0  0  0  0
  9 26  1  0  0  0  0
 17 27  1  0  0  0  0
  7 28  1  0  0  0  0
 10 29  1  0  0  0  0
 13 30  1  0  0  0  0
 13 31  1  0  0  0  0
  3 32  1  0  0  0  0
  3 33  1  0  0  0  0
 15 34  1  0  0  0  0
  6 35  1  0  0  0  0
 16 36  1  0  0  0  0
 19 37  1  0  0  0  0
  2 38  1  0  0  0  0
M  END
> <Molecule ChEMBL ID>
CHEMBL1600780

> <Class(50)>
0

> <Class(80)>
0

>  <salt>
true

>  <StandardizerResult>
Tautomerize (ID: Tautomerize)
Transform (ID: Transform NO2 (1))
Aromatize (ID: Aromatize)
Wedge Clean (ID: Wedge Clean)
Clean 2D (ID: Clean2D)

$$$$
CHEMBL132663
  Mrv2010 08032110442D          

 27 28  0  0  0  0            999 V2000
   -0.1357   -3.2519    0.0000 O   0  0  0  0  0  0  0  0  0  0  0  0
    0.5788   -2.8394    0.0000 C   0  0  0  0  0  0  0  0  0  0  0  0
    0.5788   -2.0144    0.0000 C   0  0  0  0  0  0  0  0  0  0  0  0
   -0.1357   -1.6019    0.0000 C   0  0  0  0  0  0  0  0  0  0  0  0
   -0.1357   -0.7769    0.0000 C   0  0  0  0  0  0  0  0  0  0  0  0
   -0.8502   -0.3644    0.0000 C   0  0  0  0  0  0  0  0  0  0  0  0
   -0.8502    0.4606    0.0000 C   0  0  0  0  0  0  0  0  0  0  0  0
   -0.1357    0.8731    0.0000 C   0  0  0  0  0  0  0  0  0  0  0  0
    0.5788    0.4606    0.0000 C   0  0  0  0  0  0  0  0  0  0  0  0
    1.2933    0.8731    0.0000 F   0  0  0  0  0  0  0  0  0  0  0  0
    0.5788   -0.3644    0.0000 C   0  0  0  0  0  0  0  0  0  0  0  0
    1.2933   -3.2519    0.0000 N   0  0  0  0  0  0  0  0  0  0  0  0
    1.2933   -4.0769    0.0000 C   0  0  0  0  0  0  0  0  0  0  0  0
    1.7058   -4.7913    0.0000 C   0  0  0  0  0  0  0  0  0  0  0  0
    0.8808   -4.7913    0.0000 C   0  0  0  0  0  0  0  0  0  0  0  0
   -0.1357    1.6981    0.0000 H   0  0  0  0  0  0  0  0  0  0  0  0
    0.0571   -4.7434    0.0000 H   0  0  0  0  0  0  0  0  0  0  0  0
    0.5105   -5.5286    0.0000 H   0  0  0  0  0  0  0  0  0  0  0  0
    1.2933   -1.6019    0.0000 H   0  0  0  0  0  0  0  0  0  0  0  0
   -1.5646    0.8731    0.0000 H   0  0  0  0  0  0  0  0  0  0  0  0
   -1.5646   -0.7769    0.0000 H   0  0  0  0  0  0  0  0  0  0  0  0
    1.2933   -0.7769    0.0000 H   0  0  0  0  0  0  0  0  0  0  0  0
    2.0760   -5.5286    0.0000 H   0  0  0  0  0  0  0  0  0  0  0  0
    2.5294   -4.7434    0.0000 H   0  0  0  0  0  0  0  0  0  0  0  0
   -0.8502   -2.0144    0.0000 H   0  0  0  0  0  0  0  0  0  0  0  0
    2.0077   -2.8394    0.0000 H   0  0  0  0  0  0  0  0  0  0  0  0
    0.4964   -3.8633    0.0000 H   0  0  0  0  0  0  0  0  0  0  0  0
  1  2  2  0  0  0  0
  2  3  1  0  0  0  0
  2 12  1  0  0  0  0
  3  4  2  0  0  0  0
  4  5  1  0  0  0  0
  5  6  4  0  0  0  0
  5 11  4  0  0  0  0
  6  7  4  0  0  0  0
  7  8  4  0  0  0  0
  8  9  4  0  0  0  0
  9 10  1  0  0  0  0
  9 11  4  0  0  0  0
 12 13  1  0  0  0  0
 13 14  1  0  0  0  0
 13 15  1  0  0  0  0
 14 15  1  0  0  0  0
  8 16  1  0  0  0  0
 15 17  1  0  0  0  0
 15 18  1  0  0  0  0
  3 19  1  0  0  0  0
  7 20  1  0  0  0  0
  6 21  1  0  0  0  0
 11 22  1  0  0  0  0
 14 23  1  0  0  0  0
 14 24  1  0  0  0  0
  4 25  1  0  0  0  0
 12 26  1  0  0  0  0
 13 27  1  0  0  0  0
M  END
> <Molecule ChEMBL ID>
CHEMBL132663

> <Class(50)>
0

> <Class(80)>
0

>  <salt>
false

>  <StandardizerResult>
Tautomerize (ID: Tautomerize)
Neutralize (ID: Neutralize)
Aromatize (ID: Aromatize)
Wedge Clean (ID: Wedge Clean)
Clean 2D (ID: Clean2D)

$$$$
CHEMBL34259
  Mrv2010 08032110442D          

 55 57  0  0  1  0            999 V2000
   -3.9977   -1.5019    0.0000 C   0  0  0  0  0  0  0  0  0  0  0  0
   -3.2832   -1.9144    0.0000 N   0  0  0  0  0  0  0  0  0  0  0  0
   -3.2832   -2.7394    0.0000 C   0  0  0  0  0  0  0  0  0  0  0  0
   -3.9977   -3.1519    0.0000 C   0  0  0  0  0  0  0  0  0  0  0  0
   -3.9977   -3.9769    0.0000 C   0  0  0  0  0  0  0  0  0  0  0  0
   -4.7122   -4.3894    0.0000 N   0  0  0  0  0  0  0  0  0  0  0  0
   -5.4266   -3.9769    0.0000 C   0  0  0  0  0  0  0  0  0  0  0  0
   -6.1411   -4.3894    0.0000 N   0  0  0  0  0  0  0  0  0  0  0  0
   -6.8556   -3.9769    0.0000 C   0  0  0  0  0  0  0  0  0  0  0  0
   -7.5701   -4.3894    0.0000 N   0  0  0  0  0  0  0  0  0  0  0  0
   -6.8556   -3.1519    0.0000 N   0  0  0  0  0  0  0  0  0  0  0  0
   -6.1411   -2.7394    0.0000 C   0  0  0  0  0  0  0  0  0  0  0  0
   -6.1411   -1.9144    0.0000 N   0  0  0  0  0  0  0  0  0  0  0  0
   -5.4266   -3.1519    0.0000 C   0  0  0  0  0  0  0  0  0  0  0  0
   -4.7122   -2.7394    0.0000 N   0  0  0  0  0  0  0  0  0  0  0  0
   -2.5688   -1.5019    0.0000 C   0  0  0  0  0  0  0  0  0  0  0  0
   -2.5688   -0.6769    0.0000 C   0  0  0  0  0  0  0  0  0  0  0  0
   -1.8543   -0.2644    0.0000 C   0  0  0  0  0  0  0  0  0  0  0  0
   -1.1398   -0.6769    0.0000 C   0  0  0  0  0  0  0  0  0  0  0  0
   -0.4253   -0.2644    0.0000 C   0  0  0  0  0  0  0  0  0  0  0  0
   -0.4253    0.5606    0.0000 O   0  0  0  0  0  0  0  0  0  0  0  0
    0.2891   -0.6769    0.0000 N   0  0  0  0  0  0  0  0  0  0  0  0
    1.0036   -0.2644    0.0000 C   0  0  1  0  0  0  0  0  0  0  0  0
    1.7181   -0.6769    0.0000 C   0  0  0  0  0  0  0  0  0  0  0  0
    2.4325   -0.2644    0.0000 C   0  0  0  0  0  0  0  0  0  0  0  0
    3.1470   -0.6769    0.0000 C   0  0  0  0  0  0  0  0  0  0  0  0
    3.8615   -0.2644    0.0000 O   0  0  0  0  0  0  0  0  0  0  0  0
    3.1470   -1.5019    0.0000 O   0  0  0  0  0  0  0  0  0  0  0  0
    1.0036    0.5606    0.0000 C   0  0  0  0  0  0  0  0  0  0  0  0
    1.7181    0.9731    0.0000 O   0  0  0  0  0  0  0  0  0  0  0  0
    0.2891    0.9731    0.0000 O   0  0  0  0  0  0  0  0  0  0  0  0
   -1.1398   -1.5019    0.0000 C   0  0  0  0  0  0  0  0  0  0  0  0
   -1.8543   -1.9144    0.0000 C   0  0  0  0  0  0  0  0  0  0  0  0
   -3.5852   -0.7874    0.0000 H   0  0  0  0  0  0  0  0  0  0  0  0
   -4.7122   -1.0894    0.0000 H   0  0  0  0  0  0  0  0  0  0  0  0
   -4.4102   -2.2164    0.0000 H   0  0  0  0  0  0  0  0  0  0  0  0
    0.2891    1.7981    0.0000 H   0  0  0  0  0  0  0  0  0  0  0  0
   -3.2832   -0.2644    0.0000 H   0  0  0  0  0  0  0  0  0  0  0  0
    1.0036   -1.0894    0.0000 H   0  0  0  0  0  0  0  0  0  0  0  0
   -5.4266   -1.5019    0.0000 H   0  0  0  0  0  0  0  0  0  0  0  0
   -6.8556   -1.5019    0.0000 H   0  0  0  0  0  0  0  0  0  0  0  0
    2.8028    0.4729    0.0000 H   0  0  0  0  0  0  0  0  0  0  0  0
    2.0623    0.4729    0.0000 H   0  0  0  0  0  0  0  0  0  0  0  0
    0.2891   -1.5019    0.0000 H   0  0  0  0  0  0  0  0  0  0  0  0
   -8.2845   -3.9769    0.0000 H   0  0  0  0  0  0  0  0  0  0  0  0
   -7.5701   -5.2144    0.0000 H   0  0  0  0  0  0  0  0  0  0  0  0
   -1.8543   -2.7394    0.0000 H   0  0  0  0  0  0  0  0  0  0  0  0
    1.8613   -1.4894    0.0000 H   0  0  0  0  0  0  0  0  0  0  0  0
    2.3501   -1.2072    0.0000 H   0  0  0  0  0  0  0  0  0  0  0  0
    3.6185   -2.1789    0.0000 H   0  0  0  0  0  0  0  0  0  0  0  0
   -0.4253   -1.9144    0.0000 H   0  0  0  0  0  0  0  0  0  0  0  0
   -2.8299   -3.4287    0.0000 H   0  0  0  0  0  0  0  0  0  0  0  0
   -2.4596   -2.7874    0.0000 H   0  0  0  0  0  0  0  0  0  0  0  0
   -1.8543    0.5606    0.0000 H   0  0  0  0  0  0  0  0  0  0  0  0
   -3.2832   -4.3894    0.0000 H   0  0  0  0  0  0  0  0  0  0  0  0
  1  2  1  0  0  0  0
  2  3  1  0  0  0  0
  2 16  1  0  0  0  0
  3  4  1  0  0  0  0
  4  5  4  0  0  0  0
  4 15  4  0  0  0  0
  5  6  4  0  0  0  0
  6  7  4  0  0  0  0
  7  8  4  0  0  0  0
  7 14  4  0  0  0  0
  8  9  4  0  0  0  0
  9 10  1  0  0  0  0
  9 11  4  0  0  0  0
 11 12  4  0  0  0  0
 12 13  1  0  0  0  0
 12 14  4  0  0  0  0
 14 15  4  0  0  0  0
 16 17  4  0  0  0  0
 16 33  4  0  0  0  0
 17 18  4  0  0  0  0
 18 19  4  0  0  0  0
 19 20  1  0  0  0  0
 19 32  4  0  0  0  0
 20 21  2  0  0  0  0
 20 22  1  0  0  0  0
 23 22  1  0  0  0  0
 23 24  1  0  0  0  0
 23 29  1  0  0  0  0
 24 25  1  0  0  0  0
 25 26  1  0  0  0  0
 26 27  2  0  0  0  0
 26 28  1  0  0  0  0
 29 30  2  0  0  0  0
 29 31  1  0  0  0  0
 32 33  4  0  0  0  0
  1 34  1  0  0  0  0
  1 35  1  0  0  0  0
  1 36  1  0  0  0  0
 31 37  1  0  0  0  0
 17 38  1  0  0  0  0
 23 39  1  1  0  0  0
 13 40  1  0  0  0  0
 13 41  1  0  0  0  0
 25 42  1  0  0  0  0
 25 43  1  0  0  0  0
 22 44  1  0  0  0  0
 10 45  1  0  0  0  0
 10 46  1  0  0  0  0
 33 47  1  0  0  0  0
 24 48  1  0  0  0  0
 24 49  1  0  0  0  0
 28 50  1  0  0  0  0
 32 51  1  0  0  0  0
  3 52  1  0  0  0  0
  3 53  1  0  0  0  0
 18 54  1  0  0  0  0
  5 55  1  0  0  0  0
M  END
> <Molecule ChEMBL ID>
CHEMBL34259

> <Class(50)>
0

> <Class(80)>
0

>  <salt>
false

>  <StandardizerResult>
Tautomerize (ID: Tautomerize)
Transform (ID: Transform NO2 (1))
Aromatize (ID: Aromatize)
Wedge Clean (ID: Wedge Clean)
Clean 2D (ID: Clean2D)

$$$$
CHEMBL1972466
  Mrv2010 08032110442D          

 51 54  0  0  1  0            999 V2000
   -4.0183   -2.7426    0.0000 C   0  0  0  0  0  0  0  0  0  0  0  0
   -3.3039   -2.3301    0.0000 C   0  0  0  0  0  0  0  0  0  0  0  0
   -3.3039   -1.5051    0.0000 C   0  0  0  0  0  0  0  0  0  0  0  0
   -2.5894   -1.0926    0.0000 C   0  0  0  0  0  0  0  0  0  0  0  0
   -2.5894   -0.2676    0.0000 C   0  0  1  0  0  0  0  0  0  0  0  0
   -1.8749    0.1449    0.0000 C   0  0  0  0  0  0  0  0  0  0  0  0
   -3.3039    0.1449    0.0000 N   0  0  0  0  0  0  0  0  0  0  0  0
   -3.3039    0.9699    0.0000 C   0  0  0  0  0  0  0  0  0  0  0  0
   -4.0183    1.3824    0.0000 C   0  0  0  0  0  0  0  0  0  0  0  0
   -4.0183    2.2074    0.0000 C   0  0  0  0  0  0  0  0  0  0  0  0
   -3.3039    2.6199    0.0000 C   0  0  0  0  0  0  0  0  0  0  0  0
   -2.5894    2.2074    0.0000 C   0  0  0  0  0  0  0  0  0  0  0  0
   -2.5894    1.3824    0.0000 C   0  0  0  0  0  0  0  0  0  0  0  0
   -1.8749   -1.5051    0.0000 C   0  0  0  0  0  0  0  0  0  0  0  0
   -1.1605   -1.0926    0.0000 N   0  0  0  0  0  0  0  0  0  0  0  0
   -0.4460   -1.5051    0.0000 C   0  0  0  0  0  0  0  0  0  0  0  0
    0.2685   -1.0926    0.0000 N   0  0  0  0  0  0  0  0  0  0  0  0
    0.2685   -0.2676    0.0000 C   0  0  0  0  0  0  0  0  0  0  0  0
    0.9830    0.1449    0.0000 C   0  0  0  0  0  0  0  0  0  0  0  0
    1.6974   -0.2676    0.0000 O   0  0  0  0  0  0  0  0  0  0  0  0
    1.6974   -1.0926    0.0000 C   0  0  0  0  0  0  0  0  0  0  0  0
    0.9830   -1.5051    0.0000 C   0  0  0  0  0  0  0  0  0  0  0  0
   -0.4460   -2.3301    0.0000 C   0  0  0  0  0  0  0  0  0  0  0  0
   -1.1605   -2.7426    0.0000 C   0  0  0  0  0  0  0  0  0  0  0  0
   -1.1605   -3.5676    0.0000 O   0  0  0  0  0  0  0  0  0  0  0  0
   -1.8749   -2.3301    0.0000 N   0  0  0  0  0  0  0  0  0  0  0  0
   -2.5894   -2.7426    0.0000 C   0  0  0  0  0  0  0  0  0  0  0  0
   -4.0183   -1.0926    0.0000 H   0  0  0  0  0  0  0  0  0  0  0  0
   -1.8749   -0.6801    0.0000 H   0  0  0  0  0  0  0  0  0  0  0  0
   -3.3039    3.4449    0.0000 H   0  0  0  0  0  0  0  0  0  0  0  0
    2.1508   -1.7819    0.0000 H   0  0  0  0  0  0  0  0  0  0  0  0
    2.5210   -1.1406    0.0000 H   0  0  0  0  0  0  0  0  0  0  0  0
    0.2685   -2.7426    0.0000 H   0  0  0  0  0  0  0  0  0  0  0  0
   -4.0183   -0.2676    0.0000 H   0  0  0  0  0  0  0  0  0  0  0  0
    1.3532    0.8822    0.0000 H   0  0  0  0  0  0  0  0  0  0  0  0
    0.6127    0.8822    0.0000 H   0  0  0  0  0  0  0  0  0  0  0  0
   -0.1849    0.4217    0.0000 H   0  0  0  0  0  0  0  0  0  0  0  0
   -0.5551   -0.2196    0.0000 H   0  0  0  0  0  0  0  0  0  0  0  0
    0.6127   -2.2423    0.0000 H   0  0  0  0  0  0  0  0  0  0  0  0
    1.3532   -2.2423    0.0000 H   0  0  0  0  0  0  0  0  0  0  0  0
   -4.4308   -2.0281    0.0000 H   0  0  0  0  0  0  0  0  0  0  0  0
   -4.7328   -3.1551    0.0000 H   0  0  0  0  0  0  0  0  0  0  0  0
   -3.6058   -3.4571    0.0000 H   0  0  0  0  0  0  0  0  0  0  0  0
   -1.0780   -0.0686    0.0000 H   0  0  0  0  0  0  0  0  0  0  0  0
   -1.4624    0.8594    0.0000 H   0  0  0  0  0  0  0  0  0  0  0  0
   -2.4583    0.7283    0.0000 H   0  0  0  0  0  0  0  0  0  0  0  0
   -2.5894   -3.5676    0.0000 H   0  0  0  0  0  0  0  0  0  0  0  0
   -4.7328    0.9699    0.0000 H   0  0  0  0  0  0  0  0  0  0  0  0
   -1.7684    1.4639    0.0000 H   0  0  0  0  0  0  0  0  0  0  0  0
   -4.7328    2.6199    0.0000 H   0  0  0  0  0  0  0  0  0  0  0  0
   -1.8749    2.6199    0.0000 H   0  0  0  0  0  0  0  0  0  0  0  0
  1  2  1  0  0  0  0
  2  3  1  0  0  0  0
  2 27  2  0  0  0  0
  3  4  2  0  0  0  0
  5  4  1  0  0  0  0
  4 14  1  0  0  0  0
  5  6  1  0  0  0  0
  5  7  1  0  0  0  0
  7  8  1  0  0  0  0
  8  9  4  0  0  0  0
  8 13  4  0  0  0  0
  9 10  4  0  0  0  0
 10 11  4  0  0  0  0
 11 12  4  0  0  0  0
 12 13  4  0  0  0  0
 14 15  2  0  0  0  0
 14 26  1  0  0  0  0
 15 16  1  0  0  0  0
 16 17  1  0  0  0  0
 16 23  2  0  0  0  0
 17 18  1  0  0  0  0
 17 22  1  0  0  0  0
 18 19  1  0  0  0  0
 19 20  1  0  0  0  0
 20 21  1  0  0  0  0
 21 22  1  0  0  0  0
 23 24  1  0  0  0  0
 24 25  2  0  0  0  0
 24 26  1  0  0  0  0
 26 27  1  0  0  0  0
  3 28  1  0  0  0  0
  5 29  1  1  0  0  0
 11 30  1  0  0  0  0
 21 31  1  0  0  0  0
 21 32  1  0  0  0  0
 23 33  1  0  0  0  0
  7 34  1  0  0  0  0
 19 35  1  0  0  0  0
 19 36  1  0  0  0  0
 18 37  1  0  0  0  0
 18 38  1  0  0  0  0
 22 39  1  0  0  0  0
 22 40  1  0  0  0  0
  1 41  1  0  0  0  0
  1 42  1  0  0  0  0
  1 43  1  0  0  0  0
  6 44  1  0  0  0  0
  6 45  1  0  0  0  0
  6 46  1  0  0  0  0
 27 47  1  0  0  0  0
  9 48  1  0  0  0  0
 13 49  1  0  0  0  0
 10 50  1  0  0  0  0
 12 51  1  0  0  0  0
M  END
> <Molecule ChEMBL ID>
CHEMBL1972466

> <Class(50)>
0

> <Class(80)>
0

>  <salt>
false

>  <StandardizerResult>
Tautomerize (ID: Tautomerize)
Transform (ID: Transform NO2 (1))
Aromatize (ID: Aromatize)
Wedge Clean (ID: Wedge Clean)
Clean 2D (ID: Clean2D)

$$$$
CHEMBL2219422
  Mrv2010 08032110442D          

 44 46  0  0  1  0            999 V2000
   -5.1174   -0.3448    0.0000 C   0  0  0  0  0  0  0  0  0  0  0  0
   -4.5043    0.2072    0.0000 N   0  0  0  0  0  0  0  0  0  0  0  0
   -4.5905    1.0277    0.0000 N   0  0  0  0  0  0  0  0  0  0  0  0
   -3.8369    1.3633    0.0000 C   0  0  0  0  0  0  0  0  0  0  0  0
   -3.2848    0.7502    0.0000 C   0  0  0  0  0  0  0  0  0  0  0  0
   -2.4644    0.8364    0.0000 Cl  0  0  0  0  0  0  0  0  0  0  0  0
   -3.6973    0.0357    0.0000 C   0  0  0  0  0  0  0  0  0  0  0  0
   -3.3618   -0.7180    0.0000 C   0  0  0  0  0  0  0  0  0  0  0  0
   -2.5548   -0.8895    0.0000 C   0  0  0  0  0  0  0  0  0  0  0  0
   -2.4686   -1.7100    0.0000 C   0  0  0  0  0  0  0  0  0  0  0  0
   -1.7541   -2.1225    0.0000 C   0  0  0  0  0  0  0  0  0  0  0  0
   -1.7541   -2.9475    0.0000 O   0  0  0  0  0  0  0  0  0  0  0  0
   -1.0396   -1.7100    0.0000 N   0  0  0  0  0  0  0  0  0  0  0  0
   -0.3252   -2.1225    0.0000 C   0  0  1  0  0  0  0  0  0  0  0  0
   -0.3252   -2.9475    0.0000 C   0  0  0  0  0  0  0  0  0  0  0  0
    0.3893   -3.3600    0.0000 N   0  0  0  0  0  0  0  0  0  0  0  0
    0.3893   -1.7100    0.0000 C   0  0  0  0  0  0  0  0  0  0  0  0
    1.1038   -2.1225    0.0000 C   0  0  0  0  0  0  0  0  0  0  0  0
    1.8183   -1.7100    0.0000 C   0  0  0  0  0  0  0  0  0  0  0  0
    2.5327   -2.1225    0.0000 C   0  0  0  0  0  0  0  0  0  0  0  0
    2.5327   -2.9475    0.0000 C   0  0  0  0  0  0  0  0  0  0  0  0
    1.8183   -3.3600    0.0000 C   0  0  0  0  0  0  0  0  0  0  0  0
    1.8183   -4.1850    0.0000 F   0  0  0  0  0  0  0  0  0  0  0  0
    1.1038   -2.9475    0.0000 C   0  0  0  0  0  0  0  0  0  0  0  0
   -3.2222   -2.0456    0.0000 S   0  0  0  0  0  0  0  0  0  0  0  0
   -3.7743   -1.4325    0.0000 C   0  0  0  0  0  0  0  0  0  0  0  0
   -4.5948   -1.5187    0.0000 Cl  0  0  0  0  0  0  0  0  0  0  0  0
   -1.0396   -2.5350    0.0000 H   0  0  0  0  0  0  0  0  0  0  0  0
   -5.6694    0.2683    0.0000 H   0  0  0  0  0  0  0  0  0  0  0  0
   -5.7305   -0.8968    0.0000 H   0  0  0  0  0  0  0  0  0  0  0  0
   -4.5654   -0.9579    0.0000 H   0  0  0  0  0  0  0  0  0  0  0  0
    3.2472   -3.3600    0.0000 H   0  0  0  0  0  0  0  0  0  0  0  0
    0.3893   -2.5350    0.0000 H   0  0  0  0  0  0  0  0  0  0  0  0
   -0.9571   -3.4778    0.0000 H   0  0  0  0  0  0  0  0  0  0  0  0
   -0.4684   -3.7600    0.0000 H   0  0  0  0  0  0  0  0  0  0  0  0
   -1.9417   -0.3375    0.0000 H   0  0  0  0  0  0  0  0  0  0  0  0
   -3.6653    2.1702    0.0000 H   0  0  0  0  0  0  0  0  0  0  0  0
   -1.0396   -0.8850    0.0000 H   0  0  0  0  0  0  0  0  0  0  0  0
    0.7596   -0.9727    0.0000 H   0  0  0  0  0  0  0  0  0  0  0  0
    0.0191   -0.9727    0.0000 H   0  0  0  0  0  0  0  0  0  0  0  0
    1.8183   -0.8850    0.0000 H   0  0  0  0  0  0  0  0  0  0  0  0
    3.2472   -1.7100    0.0000 H   0  0  0  0  0  0  0  0  0  0  0  0
    0.4891   -4.1789    0.0000 H   0  0  0  0  0  0  0  0  0  0  0  0
    1.0029   -3.9114    0.0000 H   0  0  0  0  0  0  0  0  0  0  0  0
  1  2  1  0  0  0  0
  2  3  4  0  0  0  0
  2  7  4  0  0  0  0
  3  4  4  0  0  0  0
  4  5  4  0  0  0  0
  5  6  1  0  0  0  0
  5  7  4  0  0  0  0
  7  8  1  0  0  0  0
  8  9  4  0  0  0  0
  8 26  4  0  0  0  0
  9 10  4  0  0  0  0
 10 11  1  0  0  0  0
 10 25  4  0  0  0  0
 11 12  2  0  0  0  0
 11 13  1  0  0  0  0
 14 13  1  0  0  0  0
 14 15  1  0  0  0  0
 14 17  1  0  0  0  0
 15 16  1  0  0  0  0
 17 18  1  0  0  0  0
 18 19  4  0  0  0  0
 18 24  4  0  0  0  0
 19 20  4  0  0  0  0
 20 21  4  0  0  0  0
 21 22  4  0  0  0  0
 22 23  1  0  0  0  0
 22 24  4  0  0  0  0
 25 26  4  0  0  0  0
 26 27  1  0  0  0  0
 14 28  1  1  0  0  0
  1 29  1  0  0  0  0
  1 30  1  0  0  0  0
  1 31  1  0  0  0  0
 21 32  1  0  0  0  0
 24 33  1  0  0  0  0
 15 34  1  0  0  0  0
 15 35  1  0  0  0  0
  9 36  1  0  0  0  0
  4 37  1  0  0  0  0
 13 38  1  0  0  0  0
 17 39  1  0  0  0  0
 17 40  1  0  0  0  0
 19 41  1  0  0  0  0
 20 42  1  0  0  0  0
 16 43  1  0  0  0  0
 16 44  1  0  0  0  0
M  END
> <Molecule ChEMBL ID>
CHEMBL2219422

> <Class(50)>
0

> <Class(80)>
0

>  <salt>
false

>  <StandardizerResult>
Tautomerize (ID: Tautomerize)
Transform (ID: Transform NO2 (1))
Aromatize (ID: Aromatize)
Wedge Clean (ID: Wedge Clean)
Clean 2D (ID: Clean2D)

$$$$
CHEMBL422037
  Mrv2010 08032110442D          

 25 25  0  0  0  0            999 V2000
   -0.0857    1.9994    0.0000 C   0  0  0  0  0  0  0  0  0  0  0  0
    0.6288    1.5869    0.0000 N   0  0  0  0  0  0  0  0  0  0  0  0
    1.3432    1.9994    0.0000 C   0  0  0  0  0  0  0  0  0  0  0  0
    0.6288    0.7619    0.0000 N   0  0  0  0  0  0  0  0  0  0  0  0
    1.3432    0.3494    0.0000 N   0  0  0  0  0  0  0  0  0  0  0  0
    1.3432   -0.4756    0.0000 C   0  0  0  0  0  0  0  0  0  0  0  0
    2.0577   -0.8881    0.0000 C   0  0  0  0  0  0  0  0  0  0  0  0
    2.0577   -1.7131    0.0000 C   0  0  0  0  0  0  0  0  0  0  0  0
    1.3432   -2.1256    0.0000 C   0  0  0  0  0  0  0  0  0  0  0  0
    1.3432   -2.9506    0.0000 C   0  0  0  0  0  0  0  0  0  0  0  0
    2.0577   -3.3631    0.0000 O   0  0  0  0  0  0  0  0  0  0  0  0
    0.6288   -3.3631    0.0000 O   0  0  0  0  0  0  0  0  0  0  0  0
    0.6288   -1.7131    0.0000 C   0  0  0  0  0  0  0  0  0  0  0  0
    0.6288   -0.8881    0.0000 C   0  0  0  0  0  0  0  0  0  0  0  0
   -0.0857   -2.9506    0.0000 H   0  0  0  0  0  0  0  0  0  0  0  0
    1.7557    1.2849    0.0000 H   0  0  0  0  0  0  0  0  0  0  0  0
    2.0577    2.4119    0.0000 H   0  0  0  0  0  0  0  0  0  0  0  0
    0.9307    2.7139    0.0000 H   0  0  0  0  0  0  0  0  0  0  0  0
   -0.0857   -2.1256    0.0000 H   0  0  0  0  0  0  0  0  0  0  0  0
    2.7722   -0.4756    0.0000 H   0  0  0  0  0  0  0  0  0  0  0  0
    2.7722   -2.1256    0.0000 H   0  0  0  0  0  0  0  0  0  0  0  0
    0.3268    2.7139    0.0000 H   0  0  0  0  0  0  0  0  0  0  0  0
   -0.8002    2.4119    0.0000 H   0  0  0  0  0  0  0  0  0  0  0  0
   -0.4982    1.2849    0.0000 H   0  0  0  0  0  0  0  0  0  0  0  0
   -0.0857   -0.4756    0.0000 H   0  0  0  0  0  0  0  0  0  0  0  0
  1  2  1  0  0  0  0
  2  3  1  0  0  0  0
  2  4  1  0  0  0  0
  4  5  2  0  0  0  0
  5  6  1  0  0  0  0
  6  7  4  0  0  0  0
  6 14  4  0  0  0  0
  7  8  4  0  0  0  0
  8  9  4  0  0  0  0
  9 10  1  0  0  0  0
  9 13  4  0  0  0  0
 10 11  2  0  0  0  0
 10 12  1  0  0  0  0
 13 14  4  0  0  0  0
 12 15  1  0  0  0  0
  3 16  1  0  0  0  0
  3 17  1  0  0  0  0
  3 18  1  0  0  0  0
 13 19  1  0  0  0  0
  7 20  1  0  0  0  0
  8 21  1  0  0  0  0
  1 22  1  0  0  0  0
  1 23  1  0  0  0  0
  1 24  1  0  0  0  0
 14 25  1  0  0  0  0
M  END
> <Molecule ChEMBL ID>
CHEMBL422037

> <Class(50)>
0

> <Class(80)>
0

>  <salt>
false

>  <StandardizerResult>
Tautomerize (ID: Tautomerize)
Neutralize (ID: Neutralize)
Aromatize (ID: Aromatize)
Wedge Clean (ID: Wedge Clean)
Clean 2D (ID: Clean2D)

$$$$
CHEMBL164660
  Mrv2010 08032110442D          

 20 22  0  0  0  0            999 V2000
   -2.9428    0.5131    0.0000 O   0  0  0  0  0  0  0  0  0  0  0  0
   -2.2283    0.9256    0.0000 C   0  0  0  0  0  0  0  0  0  0  0  0
   -2.2283    1.7506    0.0000 C   0  0  0  0  0  0  0  0  0  0  0  0
   -1.5138    2.1631    0.0000 C   0  0  0  0  0  0  0  0  0  0  0  0
   -0.7994    1.7506    0.0000 C   0  0  0  0  0  0  0  0  0  0  0  0
   -0.0849    2.1631    0.0000 C   0  0  0  0  0  0  0  0  0  0  0  0
    0.6296    1.7506    0.0000 C   0  0  0  0  0  0  0  0  0  0  0  0
    1.4142    2.0056    0.0000 C   0  0  0  0  0  0  0  0  0  0  0  0
    1.8991    1.3381    0.0000 C   0  0  0  0  0  0  0  0  0  0  0  0
    1.4142    0.6707    0.0000 O   0  0  0  0  0  0  0  0  0  0  0  0
    0.6296    0.9256    0.0000 C   0  0  0  0  0  0  0  0  0  0  0  0
   -0.0849    0.5131    0.0000 C   0  0  0  0  0  0  0  0  0  0  0  0
   -0.7994    0.9256    0.0000 C   0  0  0  0  0  0  0  0  0  0  0  0
   -1.5138    0.5131    0.0000 O   0  0  0  0  0  0  0  0  0  0  0  0
   -0.0849   -0.3119    0.0000 H   0  0  0  0  0  0  0  0  0  0  0  0
    1.6691    2.7902    0.0000 H   0  0  0  0  0  0  0  0  0  0  0  0
   -2.9428    2.1631    0.0000 H   0  0  0  0  0  0  0  0  0  0  0  0
    2.7241    1.3381    0.0000 H   0  0  0  0  0  0  0  0  0  0  0  0
   -0.0849    2.9881    0.0000 H   0  0  0  0  0  0  0  0  0  0  0  0
   -1.5138    2.9881    0.0000 H   0  0  0  0  0  0  0  0  0  0  0  0
  1  2  2  0  0  0  0
  2  3  1  0  0  0  0
  2 14  1  0  0  0  0
  3  4  2  0  0  0  0
  4  5  1  0  0  0  0
  5  6  4  0  0  0  0
  5 13  4  0  0  0  0
  6  7  4  0  0  0  0
  7  8  4  0  0  0  0
  7 11  4  0  0  0  0
  8  9  4  0  0  0  0
  9 10  4  0  0  0  0
 10 11  4  0  0  0  0
 11 12  4  0  0  0  0
 12 13  4  0  0  0  0
 13 14  1  0  0  0  0
 12 15  1  0  0  0  0
  8 16  1  0  0  0  0
  3 17  1  0  0  0  0
  9 18  1  0  0  0  0
  6 19  1  0  0  0  0
  4 20  1  0  0  0  0
M  END
> <Molecule ChEMBL ID>
CHEMBL164660

> <Class(50)>
0

> <Class(80)>
0

>  <salt>
false

>  <StandardizerResult>
Tautomerize (ID: Tautomerize)
Neutralize (ID: Neutralize)
Aromatize (ID: Aromatize)
Wedge Clean (ID: Wedge Clean)
Clean 2D (ID: Clean2D)

$$$$
CHEMBL12296
  Mrv2010 08032110442D          

 38 40  0  0  0  0            999 V2000
   -3.2903   -2.2492    0.0000 O   0  0  0  0  0  0  0  0  0  0  0  0
   -3.2903   -1.4242    0.0000 C   0  0  0  0  0  0  0  0  0  0  0  0
   -2.5758   -1.0117    0.0000 N   0  0  0  0  0  0  0  0  0  0  0  0
   -1.8613   -1.4242    0.0000 C   0  0  0  0  0  0  0  0  0  0  0  0
   -1.1469   -1.0117    0.0000 C   0  0  0  0  0  0  0  0  0  0  0  0
   -0.4324   -1.4242    0.0000 C   0  0  0  0  0  0  0  0  0  0  0  0
    0.2821   -1.0117    0.0000 C   0  0  0  0  0  0  0  0  0  0  0  0
    0.9965   -1.4242    0.0000 C   0  0  0  0  0  0  0  0  0  0  0  0
    0.9965   -2.2492    0.0000 C   0  0  0  0  0  0  0  0  0  0  0  0
    0.2821   -2.6617    0.0000 C   0  0  0  0  0  0  0  0  0  0  0  0
    0.2821   -3.4867    0.0000 C   0  0  0  0  0  0  0  0  0  0  0  0
   -0.4324   -3.8992    0.0000 C   0  0  0  0  0  0  0  0  0  0  0  0
   -1.1469   -3.4867    0.0000 C   0  0  0  0  0  0  0  0  0  0  0  0
   -1.1469   -2.6617    0.0000 C   0  0  0  0  0  0  0  0  0  0  0  0
   -0.4324   -2.2492    0.0000 C   0  0  0  0  0  0  0  0  0  0  0  0
   -4.0048   -1.0117    0.0000 C   0  0  0  0  0  0  0  0  0  0  0  0
   -4.8016   -1.2252    0.0000 C   0  0  0  0  0  0  0  0  0  0  0  0
   -5.0152   -0.4283    0.0000 C   0  0  0  0  0  0  0  0  0  0  0  0
   -4.2183   -0.2148    0.0000 C   0  0  0  0  0  0  0  0  0  0  0  0
    1.7110   -1.0117    0.0000 H   0  0  0  0  0  0  0  0  0  0  0  0
   -0.4324   -4.7242    0.0000 H   0  0  0  0  0  0  0  0  0  0  0  0
   -2.2316   -2.1614    0.0000 H   0  0  0  0  0  0  0  0  0  0  0  0
   -1.4911   -2.1614    0.0000 H   0  0  0  0  0  0  0  0  0  0  0  0
   -5.5161   -1.6377    0.0000 H   0  0  0  0  0  0  0  0  0  0  0  0
   -4.8016   -2.0502    0.0000 H   0  0  0  0  0  0  0  0  0  0  0  0
    0.2821   -0.1867    0.0000 H   0  0  0  0  0  0  0  0  0  0  0  0
   -0.7766   -0.2744    0.0000 H   0  0  0  0  0  0  0  0  0  0  0  0
   -1.5171   -0.2744    0.0000 H   0  0  0  0  0  0  0  0  0  0  0  0
   -1.9347   -2.9065    0.0000 H   0  0  0  0  0  0  0  0  0  0  0  0
   -2.5758   -0.1867    0.0000 H   0  0  0  0  0  0  0  0  0  0  0  0
    1.7110   -2.6617    0.0000 H   0  0  0  0  0  0  0  0  0  0  0  0
    0.9965   -3.8992    0.0000 H   0  0  0  0  0  0  0  0  0  0  0  0
   -3.3502   -0.5094    0.0000 H   0  0  0  0  0  0  0  0  0  0  0  0
   -1.8613   -3.8992    0.0000 H   0  0  0  0  0  0  0  0  0  0  0  0
   -3.8615    0.5291    0.0000 H   0  0  0  0  0  0  0  0  0  0  0  0
   -4.5257    0.5508    0.0000 H   0  0  0  0  0  0  0  0  0  0  0  0
   -5.4277    0.2862    0.0000 H   0  0  0  0  0  0  0  0  0  0  0  0
   -5.8402   -0.4283    0.0000 H   0  0  0  0  0  0  0  0  0  0  0  0
  1  2  2  0  0  0  0
  2  3  1  0  0  0  0
  2 16  1  0  0  0  0
  3  4  1  0  0  0  0
  4  5  1  0  0  0  0
  5  6  1  0  0  0  0
  6  7  4  0  0  0  0
  6 15  4  0  0  0  0
  7  8  4  0  0  0  0
  8  9  4  0  0  0  0
  9 10  4  0  0  0  0
 10 11  4  0  0  0  0
 10 15  4  0  0  0  0
 11 12  4  0  0  0  0
 12 13  4  0  0  0  0
 13 14  4  0  0  0  0
 14 15  4  0  0  0  0
 16 17  1  0  0  0  0
 16 19  1  0  0  0  0
 17 18  1  0  0  0  0
 18 19  1  0  0  0  0
  8 20  1  0  0  0  0
 12 21  1  0  0  0  0
  4 22  1  0  0  0  0
  4 23  1  0  0  0  0
 17 24  1  0  0  0  0
 17 25  1  0  0  0  0
  7 26  1  0  0  0  0
  5 27  1  0  0  0  0
  5 28  1  0  0  0  0
 14 29  1  0  0  0  0
  3 30  1  0  0  0  0
  9 31  1  0  0  0  0
 11 32  1  0  0  0  0
 16 33  1  0  0  0  0
 13 34  1  0  0  0  0
 19 35  1  0  0  0  0
 19 36  1  0  0  0  0
 18 37  1  0  0  0  0
 18 38  1  0  0  0  0
M  END
> <Molecule ChEMBL ID>
CHEMBL12296

> <Class(50)>
0

> <Class(80)>
0

>  <salt>
false

>  <StandardizerResult>
Tautomerize (ID: Tautomerize)
Neutralize (ID: Neutralize)
Aromatize (ID: Aromatize)
Wedge Clean (ID: Wedge Clean)
Clean 2D (ID: Clean2D)

$$$$
CHEMBL1722
  Mrv2010 08032110442D          

 36 37  0  0  1  0            999 V2000
   -0.7977   -1.8255    0.0000 C   0  0  0  0  0  0  0  0  0  0  0  0
   -0.7977   -1.0005    0.0000 O   0  0  0  0  0  0  0  0  0  0  0  0
   -0.0832   -0.5880    0.0000 C   0  0  0  0  0  0  0  0  0  0  0  0
   -0.0832    0.2370    0.0000 O   0  0  0  0  0  0  0  0  0  0  0  0
    0.6312   -1.0005    0.0000 C   0  0  1  0  0  0  0  0  0  0  0  0
    0.6312   -1.8255    0.0000 C   0  0  0  0  0  0  0  0  0  0  0  0
    1.3457   -2.2380    0.0000 C   0  0  0  0  0  0  0  0  0  0  0  0
    1.3457   -3.0630    0.0000 C   0  0  0  0  0  0  0  0  0  0  0  0
    0.6312   -3.4755    0.0000 C   0  0  0  0  0  0  0  0  0  0  0  0
   -0.0832   -3.0630    0.0000 C   0  0  0  0  0  0  0  0  0  0  0  0
   -0.0832   -2.2380    0.0000 C   0  0  0  0  0  0  0  0  0  0  0  0
    1.3457   -0.5880    0.0000 C   0  0  1  0  0  0  0  0  0  0  0  0
    1.3457    0.2370    0.0000 C   0  0  0  0  0  0  0  0  0  0  0  0
    2.0602    0.6495    0.0000 C   0  0  0  0  0  0  0  0  0  0  0  0
    2.7746    0.2370    0.0000 C   0  0  0  0  0  0  0  0  0  0  0  0
    2.7746   -0.5880    0.0000 C   0  0  0  0  0  0  0  0  0  0  0  0
    2.0602   -1.0005    0.0000 N   0  0  0  0  0  0  0  0  0  0  0  0
    0.6312   -2.6505    0.0000 H   0  0  0  0  0  0  0  0  0  0  0  0
    1.3457   -1.4130    0.0000 H   0  0  0  0  0  0  0  0  0  0  0  0
    0.8924    0.9263    0.0000 H   0  0  0  0  0  0  0  0  0  0  0  0
    0.5221    0.2850    0.0000 H   0  0  0  0  0  0  0  0  0  0  0  0
   -0.4957   -3.7774    0.0000 H   0  0  0  0  0  0  0  0  0  0  0  0
    2.0602   -1.8255    0.0000 H   0  0  0  0  0  0  0  0  0  0  0  0
    3.5983    0.2850    0.0000 H   0  0  0  0  0  0  0  0  0  0  0  0
    3.2280    0.9263    0.0000 H   0  0  0  0  0  0  0  0  0  0  0  0
   -1.5122   -1.4130    0.0000 H   0  0  0  0  0  0  0  0  0  0  0  0
   -1.5122   -2.2380    0.0000 H   0  0  0  0  0  0  0  0  0  0  0  0
   -0.7977   -2.6505    0.0000 H   0  0  0  0  0  0  0  0  0  0  0  0
    0.6312   -4.3005    0.0000 H   0  0  0  0  0  0  0  0  0  0  0  0
    3.2280   -1.2773    0.0000 H   0  0  0  0  0  0  0  0  0  0  0  0
    3.5983   -0.6359    0.0000 H   0  0  0  0  0  0  0  0  0  0  0  0
    2.0602   -3.4755    0.0000 H   0  0  0  0  0  0  0  0  0  0  0  0
    2.0602   -0.1755    0.0000 H   0  0  0  0  0  0  0  0  0  0  0  0
    2.4304    1.3868    0.0000 H   0  0  0  0  0  0  0  0  0  0  0  0
    1.6899    1.3868    0.0000 H   0  0  0  0  0  0  0  0  0  0  0  0
   -0.0832   -1.4130    0.0000 H   0  0  0  0  0  0  0  0  0  0  0  0
  1  2  1  0  0  0  0
  2  3  1  0  0  0  0
  3  4  2  0  0  0  0
  5  3  1  0  0  0  0
  5  6  1  0  0  0  0
  5 12  1  0  0  0  0
  6  7  4  0  0  0  0
  6 11  4  0  0  0  0
  7  8  4  0  0  0  0
  8  9  4  0  0  0  0
  9 10  4  0  0  0  0
 10 11  4  0  0  0  0
 12 13  1  0  0  0  0
 12 17  1  0  0  0  0
 13 14  1  0  0  0  0
 14 15  1  0  0  0  0
 15 16  1  0  0  0  0
 16 17  1  0  0  0  0
 11 18  1  0  0  0  0
 12 19  1  6  0  0  0
 13 20  1  0  0  0  0
 13 21  1  0  0  0  0
 10 22  1  0  0  0  0
  7 23  1  0  0  0  0
 15 24  1  0  0  0  0
 15 25  1  0  0  0  0
  1 26  1  0  0  0  0
  1 27  1  0  0  0  0
  1 28  1  0  0  0  0
  9 29  1  0  0  0  0
 16 30  1  0  0  0  0
 16 31  1  0  0  0  0
  8 32  1  0  0  0  0
 17 33  1  0  0  0  0
 14 34  1  0  0  0  0
 14 35  1  0  0  0  0
  5 36  1  1  0  0  0
M  END
> <Molecule ChEMBL ID>
CHEMBL1722

> <Class(50)>
0

> <Class(80)>
0

>  <salt>
true

>  <StandardizerResult>
Tautomerize (ID: Tautomerize)
Transform (ID: Transform NO2 (1))
Aromatize (ID: Aromatize)
Wedge Clean (ID: Wedge Clean)
Clean 2D (ID: Clean2D)

$$$$
CHEMBL99377
  Mrv2010 08032110442D          

 36 37  0  0  1  0            999 V2000
   -1.5234   -1.8393    0.0000 C   0  0  0  0  0  0  0  0  0  0  0  0
   -1.5234   -1.0143    0.0000 C   0  0  0  0  0  0  0  0  0  0  0  0
   -0.8089   -0.6018    0.0000 C   0  0  0  0  0  0  0  0  0  0  0  0
   -0.0944   -1.0143    0.0000 O   0  0  0  0  0  0  0  0  0  0  0  0
   -0.8089    0.2232    0.0000 N   0  0  0  0  0  0  0  0  0  0  0  0
   -0.0944    0.6357    0.0000 C   0  0  1  0  0  0  0  0  0  0  0  0
   -0.0944    1.4607    0.0000 C   0  0  0  0  0  0  0  0  0  0  0  0
    0.6200    1.8732    0.0000 C   0  0  0  0  0  0  0  0  0  0  0  0
    1.3345    1.4607    0.0000 C   0  0  0  0  0  0  0  0  0  0  0  0
    2.0490    1.8732    0.0000 C   0  0  0  0  0  0  0  0  0  0  0  0
    2.7635    1.4607    0.0000 C   0  0  0  0  0  0  0  0  0  0  0  0
    2.7635    0.6357    0.0000 C   0  0  0  0  0  0  0  0  0  0  0  0
    2.0490    0.2232    0.0000 C   0  0  0  0  0  0  0  0  0  0  0  0
    2.0490   -0.6018    0.0000 O   0  0  0  0  0  0  0  0  0  0  0  0
    1.3345   -1.0143    0.0000 C   0  0  0  0  0  0  0  0  0  0  0  0
    1.3345    0.6357    0.0000 C   0  0  0  0  0  0  0  0  0  0  0  0
    0.6200    0.2232    0.0000 C   0  0  0  0  0  0  0  0  0  0  0  0
   -0.5478    2.1499    0.0000 H   0  0  0  0  0  0  0  0  0  0  0  0
   -0.9180    1.5086    0.0000 H   0  0  0  0  0  0  0  0  0  0  0  0
    0.9903    2.6104    0.0000 H   0  0  0  0  0  0  0  0  0  0  0  0
    0.2498    2.6104    0.0000 H   0  0  0  0  0  0  0  0  0  0  0  0
    3.4779    1.8732    0.0000 H   0  0  0  0  0  0  0  0  0  0  0  0
    3.4779    0.2232    0.0000 H   0  0  0  0  0  0  0  0  0  0  0  0
    0.9220   -0.2999    0.0000 H   0  0  0  0  0  0  0  0  0  0  0  0
    0.6200   -1.4268    0.0000 H   0  0  0  0  0  0  0  0  0  0  0  0
    1.7470   -1.7288    0.0000 H   0  0  0  0  0  0  0  0  0  0  0  0
   -2.3484   -1.8393    0.0000 H   0  0  0  0  0  0  0  0  0  0  0  0
   -1.5234   -2.6643    0.0000 H   0  0  0  0  0  0  0  0  0  0  0  0
   -0.6984   -1.8393    0.0000 H   0  0  0  0  0  0  0  0  0  0  0  0
   -0.0944   -0.1893    0.0000 H   0  0  0  0  0  0  0  0  0  0  0  0
    0.6200    1.0482    0.0000 H   0  0  0  0  0  0  0  0  0  0  0  0
    0.4065   -0.5737    0.0000 H   0  0  0  0  0  0  0  0  0  0  0  0
   -1.5234    0.6357    0.0000 H   0  0  0  0  0  0  0  0  0  0  0  0
   -1.9767   -0.3251    0.0000 H   0  0  0  0  0  0  0  0  0  0  0  0
   -2.3470   -0.9664    0.0000 H   0  0  0  0  0  0  0  0  0  0  0  0
    2.0490    2.6982    0.0000 H   0  0  0  0  0  0  0  0  0  0  0  0
  1  2  1  0  0  0  0
  2  3  1  0  0  0  0
  3  4  2  0  0  0  0
  3  5  1  0  0  0  0
  6  5  1  0  0  0  0
  6  7  1  0  0  0  0
  6 17  1  0  0  0  0
  7  8  1  0  0  0  0
  8  9  1  0  0  0  0
  9 10  4  0  0  0  0
  9 16  4  0  0  0  0
 10 11  4  0  0  0  0
 11 12  4  0  0  0  0
 12 13  4  0  0  0  0
 13 14  1  0  0  0  0
 13 16  4  0  0  0  0
 14 15  1  0  0  0  0
 16 17  1  0  0  0  0
  7 18  1  0  0  0  0
  7 19  1  0  0  0  0
  8 20  1  0  0  0  0
  8 21  1  0  0  0  0
 11 22  1  0  0  0  0
 12 23  1  0  0  0  0
 15 24  1  0  0  0  0
 15 25  1  0  0  0  0
 15 26  1  0  0  0  0
  1 27  1  0  0  0  0
  1 28  1  0  0  0  0
  1 29  1  0  0  0  0
  6 30  1  6  0  0  0
 17 31  1  0  0  0  0
 17 32  1  0  0  0  0
  5 33  1  0  0  0  0
  2 34  1  0  0  0  0
  2 35  1  0  0  0  0
 10 36  1  0  0  0  0
M  END
> <Molecule ChEMBL ID>
CHEMBL99377

> <Class(50)>
0

> <Class(80)>
0

>  <salt>
false

>  <StandardizerResult>
Tautomerize (ID: Tautomerize)
Transform (ID: Transform NO2 (1))
Aromatize (ID: Aromatize)
Wedge Clean (ID: Wedge Clean)
Clean 2D (ID: Clean2D)

$$$$
CHEMBL1170610
  Mrv2010 08032110442D          

 30 32  0  0  0  0            999 V2000
   -0.7706   -1.5463    0.0000 O   0  0  0  0  0  0  0  0  0  0  0  0
   -1.4850   -1.9588    0.0000 C   0  0  0  0  0  0  0  0  0  0  0  0
   -2.1995   -1.5463    0.0000 O   0  0  0  0  0  0  0  0  0  0  0  0
   -2.1995   -0.7213    0.0000 C   0  0  0  0  0  0  0  0  0  0  0  0
   -2.9140   -0.3088    0.0000 C   0  0  0  0  0  0  0  0  0  0  0  0
   -2.9140    0.5162    0.0000 C   0  0  0  0  0  0  0  0  0  0  0  0
   -2.1995    0.9287    0.0000 C   0  0  0  0  0  0  0  0  0  0  0  0
   -1.4850    0.5162    0.0000 C   0  0  0  0  0  0  0  0  0  0  0  0
   -0.7706    0.9287    0.0000 C   0  0  0  0  0  0  0  0  0  0  0  0
   -0.0561    0.5162    0.0000 C   0  0  0  0  0  0  0  0  0  0  0  0
   -0.0561   -0.3088    0.0000 C   0  0  0  0  0  0  0  0  0  0  0  0
   -0.7706   -0.7213    0.0000 N   0  0  0  0  0  0  0  0  0  0  0  0
   -1.4850   -0.3088    0.0000 C   0  0  0  0  0  0  0  0  0  0  0  0
   -1.4850   -2.7838    0.0000 C   0  0  0  0  0  0  0  0  0  0  0  0
   -0.7706   -3.1963    0.0000 C   0  0  0  0  0  0  0  0  0  0  0  0
   -0.7706   -4.0213    0.0000 C   0  0  0  0  0  0  0  0  0  0  0  0
   -1.4850   -4.4338    0.0000 C   0  0  0  0  0  0  0  0  0  0  0  0
   -2.1995   -4.0213    0.0000 C   0  0  0  0  0  0  0  0  0  0  0  0
   -2.1995   -3.1963    0.0000 C   0  0  0  0  0  0  0  0  0  0  0  0
   -0.0561   -4.4338    0.0000 H   0  0  0  0  0  0  0  0  0  0  0  0
    0.6584    0.9287    0.0000 H   0  0  0  0  0  0  0  0  0  0  0  0
   -1.4850   -5.2588    0.0000 H   0  0  0  0  0  0  0  0  0  0  0  0
   -2.9140   -2.7838    0.0000 H   0  0  0  0  0  0  0  0  0  0  0  0
   -0.7706    1.7537    0.0000 H   0  0  0  0  0  0  0  0  0  0  0  0
    0.6584   -0.7213    0.0000 H   0  0  0  0  0  0  0  0  0  0  0  0
   -3.6284   -0.7213    0.0000 H   0  0  0  0  0  0  0  0  0  0  0  0
   -2.1995    1.7537    0.0000 H   0  0  0  0  0  0  0  0  0  0  0  0
   -2.9140   -4.4338    0.0000 H   0  0  0  0  0  0  0  0  0  0  0  0
   -3.6284    0.9287    0.0000 H   0  0  0  0  0  0  0  0  0  0  0  0
   -0.0561   -2.7838    0.0000 H   0  0  0  0  0  0  0  0  0  0  0  0
  1  2  2  0  0  0  0
  2  3  1  0  0  0  0
  2 14  1  0  0  0  0
  3  4  1  0  0  0  0
  4  5  4  0  0  0  0
  4 13  4  0  0  0  0
  5  6  4  0  0  0  0
  6  7  4  0  0  0  0
  7  8  4  0  0  0  0
  8  9  4  0  0  0  0
  8 13  4  0  0  0  0
  9 10  4  0  0  0  0
 10 11  4  0  0  0  0
 11 12  4  0  0  0  0
 12 13  4  0  0  0  0
 14 15  4  0  0  0  0
 14 19  4  0  0  0  0
 15 16  4  0  0  0  0
 16 17  4  0  0  0  0
 17 18  4  0  0  0  0
 18 19  4  0  0  0  0
 16 20  1  0  0  0  0
 10 21  1  0  0  0  0
 17 22  1  0  0  0  0
 19 23  1  0  0  0  0
  9 24  1  0  0  0  0
 11 25  1  0  0  0  0
  5 26  1  0  0  0  0
  7 27  1  0  0  0  0
 18 28  1  0  0  0  0
  6 29  1  0  0  0  0
 15 30  1  0  0  0  0
M  END
> <Molecule ChEMBL ID>
CHEMBL1170610

> <Class(50)>
0

> <Class(80)>
0

>  <salt>
false

>  <StandardizerResult>
Tautomerize (ID: Tautomerize)
Neutralize (ID: Neutralize)
Aromatize (ID: Aromatize)
Wedge Clean (ID: Wedge Clean)
Clean 2D (ID: Clean2D)

$$$$
CHEMBL1652621
  Mrv2010 08032110442D          

 49 52  0  0  0  0            999 V2000
    3.4095   -0.1055    0.0000 C   0  0  0  0  0  0  0  0  0  0  0  0
    3.6644    0.6791    0.0000 C   0  0  0  0  0  0  0  0  0  0  0  0
    3.1795    1.3465    0.0000 C   0  0  0  0  0  0  0  0  0  0  0  0
    2.3545    1.3465    0.0000 C   0  0  0  0  0  0  0  0  0  0  0  0
    1.9420    0.6320    0.0000 N   0  0  0  0  0  0  0  0  0  0  0  0
    2.3545   -0.0824    0.0000 C   0  0  0  0  0  0  0  0  0  0  0  0
    1.1170    0.6320    0.0000 C   0  0  0  0  0  0  0  0  0  0  0  0
    0.7045    1.3465    0.0000 O   0  0  0  0  0  0  0  0  0  0  0  0
    0.7045   -0.0824    0.0000 C   0  0  0  0  0  0  0  0  0  0  0  0
    1.1170   -0.7969    0.0000 C   0  0  0  0  0  0  0  0  0  0  0  0
    0.7045   -1.5114    0.0000 C   0  0  0  0  0  0  0  0  0  0  0  0
   -0.1205   -1.5114    0.0000 C   0  0  0  0  0  0  0  0  0  0  0  0
   -0.5330   -2.2258    0.0000 N   0  0  0  0  0  0  0  0  0  0  0  0
   -0.1205   -2.9403    0.0000 C   0  0  0  0  0  0  0  0  0  0  0  0
    0.7045   -2.9403    0.0000 C   0  0  0  0  0  0  0  0  0  0  0  0
    1.1170   -2.2258    0.0000 C   0  0  0  0  0  0  0  0  0  0  0  0
    1.1170   -3.6548    0.0000 C   0  0  0  0  0  0  0  0  0  0  0  0
    0.7045   -4.3693    0.0000 C   0  0  0  0  0  0  0  0  0  0  0  0
   -0.1205   -4.3693    0.0000 C   0  0  0  0  0  0  0  0  0  0  0  0
   -0.5330   -5.0837    0.0000 O   0  0  0  0  0  0  0  0  0  0  0  0
   -0.5330   -3.6548    0.0000 N   0  0  0  0  0  0  0  0  0  0  0  0
    3.6644    2.0140    0.0000 O   0  0  0  0  0  0  0  0  0  0  0  0
    4.4490    1.7590    0.0000 C   0  0  0  0  0  0  0  0  0  0  0  0
    5.1635    2.1715    0.0000 C   0  0  0  0  0  0  0  0  0  0  0  0
    5.8780    1.7590    0.0000 C   0  0  0  0  0  0  0  0  0  0  0  0
    5.8780    0.9340    0.0000 C   0  0  0  0  0  0  0  0  0  0  0  0
    5.1635    0.5215    0.0000 C   0  0  0  0  0  0  0  0  0  0  0  0
    4.4490    0.9340    0.0000 C   0  0  0  0  0  0  0  0  0  0  0  0
   -0.5330   -0.7969    0.0000 H   0  0  0  0  0  0  0  0  0  0  0  0
    6.5924    2.1715    0.0000 H   0  0  0  0  0  0  0  0  0  0  0  0
    1.9420   -2.2258    0.0000 H   0  0  0  0  0  0  0  0  0  0  0  0
    2.6248    0.1494    0.0000 H   0  0  0  0  0  0  0  0  0  0  0  0
    3.1545   -0.8902    0.0000 H   0  0  0  0  0  0  0  0  0  0  0  0
    4.1941   -0.3605    0.0000 H   0  0  0  0  0  0  0  0  0  0  0  0
    2.3065    2.1701    0.0000 H   0  0  0  0  0  0  0  0  0  0  0  0
    1.6652    1.7999    0.0000 H   0  0  0  0  0  0  0  0  0  0  0  0
    1.8058   -1.2509    0.0000 H   0  0  0  0  0  0  0  0  0  0  0  0
    1.5424   -0.2279    0.0000 H   0  0  0  0  0  0  0  0  0  0  0  0
    2.2155   -0.8956    0.0000 H   0  0  0  0  0  0  0  0  0  0  0  0
    3.0722   -0.4892    0.0000 H   0  0  0  0  0  0  0  0  0  0  0  0
    6.5924    0.5215    0.0000 H   0  0  0  0  0  0  0  0  0  0  0  0
    5.1635   -0.3035    0.0000 H   0  0  0  0  0  0  0  0  0  0  0  0
    1.8542   -4.0250    0.0000 H   0  0  0  0  0  0  0  0  0  0  0  0
    1.8542   -3.2845    0.0000 H   0  0  0  0  0  0  0  0  0  0  0  0
    0.7524   -5.1929    0.0000 H   0  0  0  0  0  0  0  0  0  0  0  0
    1.3937   -4.8226    0.0000 H   0  0  0  0  0  0  0  0  0  0  0  0
   -0.1205   -0.0824    0.0000 H   0  0  0  0  0  0  0  0  0  0  0  0
   -1.3580   -3.6548    0.0000 H   0  0  0  0  0  0  0  0  0  0  0  0
    5.1635    2.9965    0.0000 H   0  0  0  0  0  0  0  0  0  0  0  0
  1  2  1  0  0  0  0
  2  3  4  0  0  0  0
  2 28  4  0  0  0  0
  3  4  1  0  0  0  0
  3 22  4  0  0  0  0
  4  5  1  0  0  0  0
  5  6  1  0  0  0  0
  5  7  1  0  0  0  0
  7  8  2  0  0  0  0
  7  9  1  0  0  0  0
  9 10  2  0  0  0  0
 10 11  1  0  0  0  0
 11 12  4  0  0  0  0
 11 16  4  0  0  0  0
 12 13  4  0  0  0  0
 13 14  4  0  0  0  0
 14 15  4  0  0  0  0
 14 21  1  0  0  0  0
 15 16  4  0  0  0  0
 15 17  1  0  0  0  0
 17 18  1  0  0  0  0
 18 19  1  0  0  0  0
 19 20  2  0  0  0  0
 19 21  1  0  0  0  0
 22 23  4  0  0  0  0
 23 24  4  0  0  0  0
 23 28  4  0  0  0  0
 24 25  4  0  0  0  0
 25 26  4  0  0  0  0
 26 27  4  0  0  0  0
 27 28  4  0  0  0  0
 12 29  1  0  0  0  0
 25 30  1  0  0  0  0
 16 31  1  0  0  0  0
  1 32  1  0  0  0  0
  1 33  1  0  0  0  0
  1 34  1  0  0  0  0
  4 35  1  0  0  0  0
  4 36  1  0  0  0  0
 10 37  1  0  0  0  0
  6 38  1  0  0  0  0
  6 39  1  0  0  0  0
  6 40  1  0  0  0  0
 26 41  1  0  0  0  0
 27 42  1  0  0  0  0
 17 43  1  0  0  0  0
 17 44  1  0  0  0  0
 18 45  1  0  0  0  0
 18 46  1  0  0  0  0
  9 47  1  0  0  0  0
 21 48  1  0  0  0  0
 24 49  1  0  0  0  0
M  END
> <Molecule ChEMBL ID>
CHEMBL1652621

> <Class(50)>
0

> <Class(80)>
0

>  <salt>
false

>  <StandardizerResult>
Tautomerize (ID: Tautomerize)
Neutralize (ID: Neutralize)
Aromatize (ID: Aromatize)
Wedge Clean (ID: Wedge Clean)
Clean 2D (ID: Clean2D)

$$$$
CHEMBL3617655
  Mrv2010 08032110442D          

 42 45  0  0  1  0            999 V2000
    1.0005    2.1174    0.0000 C   0  0  0  0  0  0  0  0  0  0  0  0
    1.0005    1.2924    0.0000 C   0  0  0  0  0  0  0  0  0  0  0  0
    1.7149    0.8799    0.0000 C   0  0  0  0  0  0  0  0  0  0  0  0
    1.7149    0.0549    0.0000 N   0  0  0  0  0  0  0  0  0  0  0  0
    2.4294   -0.3576    0.0000 C   0  0  0  0  0  0  0  0  0  0  0  0
    3.1439    0.0549    0.0000 C   0  0  0  0  0  0  0  0  0  0  0  0
    3.8583   -0.3576    0.0000 C   0  0  0  0  0  0  0  0  0  0  0  0
    3.8583   -1.1826    0.0000 C   0  0  0  0  0  0  0  0  0  0  0  0
    3.1439   -1.5951    0.0000 N   0  0  0  0  0  0  0  0  0  0  0  0
    2.4294   -1.1826    0.0000 C   0  0  0  0  0  0  0  0  0  0  0  0
    1.7149   -1.5951    0.0000 F   0  0  0  0  0  0  0  0  0  0  0  0
    1.0005   -0.3576    0.0000 C   0  0  0  0  0  0  0  0  0  0  0  0
    1.0005   -1.1826    0.0000 O   0  0  0  0  0  0  0  0  0  0  0  0
    0.2860    0.0549    0.0000 C   0  0  0  0  0  0  0  0  0  0  0  0
   -0.4986   -0.2001    0.0000 C   0  0  0  0  0  0  0  0  0  0  0  0
   -0.9836    0.4674    0.0000 C   0  0  0  0  0  0  0  0  0  0  0  0
   -1.8086    0.4674    0.0000 C   0  0  0  0  0  0  0  0  0  0  0  0
   -2.2211   -0.2471    0.0000 O   0  0  0  0  0  0  0  0  0  0  0  0
   -3.0461   -0.2471    0.0000 C   0  0  0  0  0  0  0  0  0  0  0  0
   -3.4586   -0.9616    0.0000 C   0  0  0  0  0  0  0  0  0  0  0  0
   -4.2836   -0.9616    0.0000 C   0  0  0  0  0  0  0  0  0  0  0  0
   -4.6961   -0.2471    0.0000 C   0  0  0  0  0  0  0  0  0  0  0  0
   -5.5211   -0.2471    0.0000 Cl  0  0  0  0  0  0  0  0  0  0  0  0
   -4.2836    0.4674    0.0000 C   0  0  0  0  0  0  0  0  0  0  0  0
   -3.4586    0.4674    0.0000 N   0  0  0  0  0  0  0  0  0  0  0  0
   -0.4986    1.1348    0.0000 N   0  0  0  0  0  0  0  0  0  0  0  0
    0.2860    0.8799    0.0000 N   0  0  0  0  0  0  0  0  0  0  0  0
   -4.6961    1.1819    0.0000 H   0  0  0  0  0  0  0  0  0  0  0  0
    0.2860    1.7049    0.0000 H   0  0  0  0  0  0  0  0  0  0  0  0
    4.5728    0.0549    0.0000 H   0  0  0  0  0  0  0  0  0  0  0  0
    2.5385    0.9279    0.0000 H   0  0  0  0  0  0  0  0  0  0  0  0
    2.1683    1.5692    0.0000 H   0  0  0  0  0  0  0  0  0  0  0  0
   -3.0461   -1.6760    0.0000 H   0  0  0  0  0  0  0  0  0  0  0  0
    3.1439    0.8799    0.0000 H   0  0  0  0  0  0  0  0  0  0  0  0
   -4.6961   -1.6760    0.0000 H   0  0  0  0  0  0  0  0  0  0  0  0
   -0.7536   -0.9847    0.0000 H   0  0  0  0  0  0  0  0  0  0  0  0
   -1.8565    1.2910    0.0000 H   0  0  0  0  0  0  0  0  0  0  0  0
   -2.4978    0.9207    0.0000 H   0  0  0  0  0  0  0  0  0  0  0  0
    1.8255    2.1174    0.0000 H   0  0  0  0  0  0  0  0  0  0  0  0
    1.0005    2.9424    0.0000 H   0  0  0  0  0  0  0  0  0  0  0  0
    0.1755    2.1174    0.0000 H   0  0  0  0  0  0  0  0  0  0  0  0
    4.5728   -1.5951    0.0000 H   0  0  0  0  0  0  0  0  0  0  0  0
  1  2  1  0  0  0  0
  2  3  1  0  0  0  0
  2 27  1  0  0  0  0
  3  4  1  0  0  0  0
  4  5  1  0  0  0  0
  4 12  1  0  0  0  0
  5  6  4  0  0  0  0
  5 10  4  0  0  0  0
  6  7  4  0  0  0  0
  7  8  4  0  0  0  0
  8  9  4  0  0  0  0
  9 10  4  0  0  0  0
 10 11  1  0  0  0  0
 12 13  2  0  0  0  0
 12 14  1  0  0  0  0
 14 15  4  0  0  0  0
 14 27  4  0  0  0  0
 15 16  4  0  0  0  0
 16 17  1  0  0  0  0
 16 26  4  0  0  0  0
 17 18  1  0  0  0  0
 18 19  1  0  0  0  0
 19 20  4  0  0  0  0
 19 25  4  0  0  0  0
 20 21  4  0  0  0  0
 21 22  4  0  0  0  0
 22 23  1  0  0  0  0
 22 24  4  0  0  0  0
 24 25  4  0  0  0  0
 26 27  4  0  0  0  0
 24 28  1  0  0  0  0
  2 29  1  0  0  0  0
  7 30  1  0  0  0  0
  3 31  1  0  0  0  0
  3 32  1  0  0  0  0
 20 33  1  0  0  0  0
  6 34  1  0  0  0  0
 21 35  1  0  0  0  0
 15 36  1  0  0  0  0
 17 37  1  0  0  0  0
 17 38  1  0  0  0  0
  1 39  1  0  0  0  0
  1 40  1  0  0  0  0
  1 41  1  0  0  0  0
  8 42  1  0  0  0  0
M  END
> <Molecule ChEMBL ID>
CHEMBL3617655

> <Class(50)>
0

> <Class(80)>
0

>  <salt>
false

>  <StandardizerResult>
Tautomerize (ID: Tautomerize)
Transform (ID: Transform NO2 (1))
Aromatize (ID: Aromatize)
Wedge Clean (ID: Wedge Clean)
Clean 2D (ID: Clean2D)

$$$$
CHEMBL411
  Mrv2010 08032110442D          

 40 41  0  0  0  0            999 V2000
    2.3889   -1.6727    0.0000 C   0  0  0  0  0  0  0  0  0  0  0  0
    1.6744   -2.0852    0.0000 C   0  0  0  0  0  0  0  0  0  0  0  0
    0.9599   -1.6727    0.0000 C   0  0  0  0  0  0  0  0  0  0  0  0
    0.2454   -2.0852    0.0000 C   0  0  0  0  0  0  0  0  0  0  0  0
   -0.4690   -1.6727    0.0000 C   0  0  0  0  0  0  0  0  0  0  0  0
   -1.1835   -2.0852    0.0000 C   0  0  0  0  0  0  0  0  0  0  0  0
    0.2454   -2.9102    0.0000 C   0  0  0  0  0  0  0  0  0  0  0  0
    0.9599   -3.3227    0.0000 C   0  0  0  0  0  0  0  0  0  0  0  0
    0.9599   -4.1477    0.0000 C   0  0  0  0  0  0  0  0  0  0  0  0
    0.2454   -4.5602    0.0000 C   0  0  0  0  0  0  0  0  0  0  0  0
    0.2454   -5.3852    0.0000 O   0  0  0  0  0  0  0  0  0  0  0  0
   -0.4690   -4.1477    0.0000 C   0  0  0  0  0  0  0  0  0  0  0  0
   -0.4690   -3.3227    0.0000 C   0  0  0  0  0  0  0  0  0  0  0  0
    0.9599   -0.8477    0.0000 C   0  0  0  0  0  0  0  0  0  0  0  0
    0.2454   -0.4352    0.0000 C   0  0  0  0  0  0  0  0  0  0  0  0
    0.2454    0.3898    0.0000 C   0  0  0  0  0  0  0  0  0  0  0  0
    0.9599    0.8023    0.0000 C   0  0  0  0  0  0  0  0  0  0  0  0
    0.9599    1.6273    0.0000 O   0  0  0  0  0  0  0  0  0  0  0  0
    1.6744    0.3898    0.0000 C   0  0  0  0  0  0  0  0  0  0  0  0
    1.6744   -0.4352    0.0000 C   0  0  0  0  0  0  0  0  0  0  0  0
   -1.5960   -1.3707    0.0000 H   0  0  0  0  0  0  0  0  0  0  0  0
   -1.8980   -2.4977    0.0000 H   0  0  0  0  0  0  0  0  0  0  0  0
   -0.7710   -2.7996    0.0000 H   0  0  0  0  0  0  0  0  0  0  0  0
   -0.0988   -0.9354    0.0000 H   0  0  0  0  0  0  0  0  0  0  0  0
   -0.8393   -0.9354    0.0000 H   0  0  0  0  0  0  0  0  0  0  0  0
   -0.4690   -5.7977    0.0000 H   0  0  0  0  0  0  0  0  0  0  0  0
   -0.5424   -0.1903    0.0000 H   0  0  0  0  0  0  0  0  0  0  0  0
   -1.1835   -4.5602    0.0000 H   0  0  0  0  0  0  0  0  0  0  0  0
    1.3041   -2.8224    0.0000 H   0  0  0  0  0  0  0  0  0  0  0  0
    2.0446   -2.8224    0.0000 H   0  0  0  0  0  0  0  0  0  0  0  0
    2.4713   -0.2216    0.0000 H   0  0  0  0  0  0  0  0  0  0  0  0
    1.7477   -3.5675    0.0000 H   0  0  0  0  0  0  0  0  0  0  0  0
   -0.4690    0.8023    0.0000 H   0  0  0  0  0  0  0  0  0  0  0  0
   -1.2659   -3.5362    0.0000 H   0  0  0  0  0  0  0  0  0  0  0  0
    1.6744    2.0398    0.0000 H   0  0  0  0  0  0  0  0  0  0  0  0
    2.8014   -2.3871    0.0000 H   0  0  0  0  0  0  0  0  0  0  0  0
    3.1033   -1.2602    0.0000 H   0  0  0  0  0  0  0  0  0  0  0  0
    1.9764   -0.9582    0.0000 H   0  0  0  0  0  0  0  0  0  0  0  0
    1.6744   -4.5602    0.0000 H   0  0  0  0  0  0  0  0  0  0  0  0
    2.3889    0.8023    0.0000 H   0  0  0  0  0  0  0  0  0  0  0  0
  1  2  1  0  0  0  0
  2  3  1  0  0  0  0
  3  4  2  0  0  0  0
  3 14  1  0  0  0  0
  4  5  1  0  0  0  0
  4  7  1  0  0  0  0
  5  6  1  0  0  0  0
  7  8  4  0  0  0  0
  7 13  4  0  0  0  0
  8  9  4  0  0  0  0
  9 10  4  0  0  0  0
 10 11  1  0  0  0  0
 10 12  4  0  0  0  0
 12 13  4  0  0  0  0
 14 15  4  0  0  0  0
 14 20  4  0  0  0  0
 15 16  4  0  0  0  0
 16 17  4  0  0  0  0
 17 18  1  0  0  0  0
 17 19  4  0  0  0  0
 19 20  4  0  0  0  0
  6 21  1  0  0  0  0
  6 22  1  0  0  0  0
  6 23  1  0  0  0  0
  5 24  1  0  0  0  0
  5 25  1  0  0  0  0
 11 26  1  0  0  0  0
 15 27  1  0  0  0  0
 12 28  1  0  0  0  0
  2 29  1  0  0  0  0
  2 30  1  0  0  0  0
 20 31  1  0  0  0  0
  8 32  1  0  0  0  0
 16 33  1  0  0  0  0
 13 34  1  0  0  0  0
 18 35  1  0  0  0  0
  1 36  1  0  0  0  0
  1 37  1  0  0  0  0
  1 38  1  0  0  0  0
  9 39  1  0  0  0  0
 19 40  1  0  0  0  0
M  END
> <Molecule ChEMBL ID>
CHEMBL411

> <Class(50)>
0

> <Class(80)>
0

>  <salt>
false

>  <StandardizerResult>
Tautomerize (ID: Tautomerize)
Neutralize (ID: Neutralize)
Aromatize (ID: Aromatize)
Wedge Clean (ID: Wedge Clean)
Clean 2D (ID: Clean2D)

$$$$
CHEMBL1975212
  Mrv2010 08032110442D          

 25 27  0  0  0  0            999 V2000
    2.4228    1.5874    0.0000 N   0  0  0  0  0  0  0  0  0  0  0  0
    2.4228    0.7624    0.0000 C   0  0  0  0  0  0  0  0  0  0  0  0
    3.1373    0.3499    0.0000 N   0  0  0  0  0  0  0  0  0  0  0  0
    3.1373   -0.4751    0.0000 C   0  0  0  0  0  0  0  0  0  0  0  0
    2.4228   -0.8876    0.0000 N   0  0  0  0  0  0  0  0  0  0  0  0
    1.7084   -0.4751    0.0000 C   0  0  0  0  0  0  0  0  0  0  0  0
    0.9237   -0.7301    0.0000 S   0  0  0  0  0  0  0  0  0  0  0  0
    0.4388   -0.0626    0.0000 C   0  0  0  0  0  0  0  0  0  0  0  0
    0.9237    0.6048    0.0000 C   0  0  0  0  0  0  0  0  0  0  0  0
    0.6688    1.3894    0.0000 C   0  0  0  0  0  0  0  0  0  0  0  0
   -0.1382    1.5610    0.0000 C   0  0  0  0  0  0  0  0  0  0  0  0
   -0.3931    2.3456    0.0000 C   0  0  0  0  0  0  0  0  0  0  0  0
    0.1589    2.9587    0.0000 C   0  0  0  0  0  0  0  0  0  0  0  0
    0.9659    2.7872    0.0000 C   0  0  0  0  0  0  0  0  0  0  0  0
    1.2208    2.0025    0.0000 C   0  0  0  0  0  0  0  0  0  0  0  0
    1.7084    0.3499    0.0000 C   0  0  0  0  0  0  0  0  0  0  0  0
    3.1373    1.9999    0.0000 H   0  0  0  0  0  0  0  0  0  0  0  0
    1.7084    1.9999    0.0000 H   0  0  0  0  0  0  0  0  0  0  0  0
    1.5179    3.4003    0.0000 H   0  0  0  0  0  0  0  0  0  0  0  0
   -0.6902    0.9479    0.0000 H   0  0  0  0  0  0  0  0  0  0  0  0
   -0.0960    3.7433    0.0000 H   0  0  0  0  0  0  0  0  0  0  0  0
   -1.2001    2.5171    0.0000 H   0  0  0  0  0  0  0  0  0  0  0  0
    1.5543    1.2479    0.0000 H   0  0  0  0  0  0  0  0  0  0  0  0
    3.8518   -0.8876    0.0000 H   0  0  0  0  0  0  0  0  0  0  0  0
   -0.3862   -0.0626    0.0000 H   0  0  0  0  0  0  0  0  0  0  0  0
  1  2  1  0  0  0  0
  2  3  4  0  0  0  0
  2 16  4  0  0  0  0
  3  4  4  0  0  0  0
  4  5  4  0  0  0  0
  5  6  4  0  0  0  0
  6  7  4  0  0  0  0
  6 16  4  0  0  0  0
  7  8  4  0  0  0  0
  8  9  4  0  0  0  0
  9 10  1  0  0  0  0
  9 16  4  0  0  0  0
 10 11  4  0  0  0  0
 10 15  4  0  0  0  0
 11 12  4  0  0  0  0
 12 13  4  0  0  0  0
 13 14  4  0  0  0  0
 14 15  4  0  0  0  0
  1 17  1  0  0  0  0
  1 18  1  0  0  0  0
 14 19  1  0  0  0  0
 11 20  1  0  0  0  0
 13 21  1  0  0  0  0
 12 22  1  0  0  0  0
 15 23  1  0  0  0  0
  4 24  1  0  0  0  0
  8 25  1  0  0  0  0
M  END
> <Molecule ChEMBL ID>
CHEMBL1975212

> <Class(50)>
0

> <Class(80)>
0

>  <salt>
false

>  <StandardizerResult>
Tautomerize (ID: Tautomerize)
Neutralize (ID: Neutralize)
Aromatize (ID: Aromatize)
Wedge Clean (ID: Wedge Clean)
Clean 2D (ID: Clean2D)

$$$$
CHEMBL46909
  Mrv2010 08032110442D          

 42 43  0  0  0  0            999 V2000
   -3.2814    1.2406    0.0000 C   0  0  0  0  0  0  0  0  0  0  0  0
   -2.5669    0.8281    0.0000 O   0  0  0  0  0  0  0  0  0  0  0  0
   -2.5669    0.0031    0.0000 C   0  0  0  0  0  0  0  0  0  0  0  0
   -1.8524   -0.4094    0.0000 C   0  0  0  0  0  0  0  0  0  0  0  0
   -1.8524   -1.2344    0.0000 C   0  0  0  0  0  0  0  0  0  0  0  0
   -1.1379   -1.6469    0.0000 C   0  0  0  0  0  0  0  0  0  0  0  0
   -0.4235   -1.2344    0.0000 C   0  0  0  0  0  0  0  0  0  0  0  0
    0.2910   -1.6469    0.0000 C   0  0  0  0  0  0  0  0  0  0  0  0
    1.0055   -1.2344    0.0000 C   0  0  0  0  0  0  0  0  0  0  0  0
    1.7199   -1.6469    0.0000 C   0  0  0  0  0  0  0  0  0  0  0  0
    1.7199   -2.4719    0.0000 C   0  0  0  0  0  0  0  0  0  0  0  0
    2.4344   -2.8844    0.0000 O   0  0  0  0  0  0  0  0  0  0  0  0
    3.1489   -2.4719    0.0000 C   0  0  0  0  0  0  0  0  0  0  0  0
    1.0055   -2.8844    0.0000 C   0  0  0  0  0  0  0  0  0  0  0  0
    0.2910   -2.4719    0.0000 C   0  0  0  0  0  0  0  0  0  0  0  0
   -0.4235   -2.8844    0.0000 O   0  0  0  0  0  0  0  0  0  0  0  0
   -0.4235   -3.7094    0.0000 C   0  0  0  0  0  0  0  0  0  0  0  0
   -2.5669   -1.6469    0.0000 C   0  0  0  0  0  0  0  0  0  0  0  0
   -3.2814   -1.2344    0.0000 C   0  0  0  0  0  0  0  0  0  0  0  0
   -3.9958   -1.6469    0.0000 O   0  0  0  0  0  0  0  0  0  0  0  0
   -4.7103   -1.2344    0.0000 C   0  0  0  0  0  0  0  0  0  0  0  0
   -3.2814   -0.4094    0.0000 C   0  0  0  0  0  0  0  0  0  0  0  0
   -3.9958    0.0031    0.0000 H   0  0  0  0  0  0  0  0  0  0  0  0
   -2.8689    1.9551    0.0000 H   0  0  0  0  0  0  0  0  0  0  0  0
   -3.9958    1.6531    0.0000 H   0  0  0  0  0  0  0  0  0  0  0  0
   -3.6939    0.5261    0.0000 H   0  0  0  0  0  0  0  0  0  0  0  0
    3.5614   -3.1864    0.0000 H   0  0  0  0  0  0  0  0  0  0  0  0
    3.8634   -2.0594    0.0000 H   0  0  0  0  0  0  0  0  0  0  0  0
    2.7364   -1.7574    0.0000 H   0  0  0  0  0  0  0  0  0  0  0  0
   -1.2485   -3.7094    0.0000 H   0  0  0  0  0  0  0  0  0  0  0  0
   -0.4235   -4.5344    0.0000 H   0  0  0  0  0  0  0  0  0  0  0  0
    0.4015   -3.7094    0.0000 H   0  0  0  0  0  0  0  0  0  0  0  0
   -1.1379   -2.4719    0.0000 H   0  0  0  0  0  0  0  0  0  0  0  0
    1.0055   -0.4094    0.0000 H   0  0  0  0  0  0  0  0  0  0  0  0
    1.0055   -3.7094    0.0000 H   0  0  0  0  0  0  0  0  0  0  0  0
   -2.5669   -2.4719    0.0000 H   0  0  0  0  0  0  0  0  0  0  0  0
   -4.2978   -0.5199    0.0000 H   0  0  0  0  0  0  0  0  0  0  0  0
   -5.4248   -0.8219    0.0000 H   0  0  0  0  0  0  0  0  0  0  0  0
   -5.1228   -1.9489    0.0000 H   0  0  0  0  0  0  0  0  0  0  0  0
   -1.1379    0.0031    0.0000 H   0  0  0  0  0  0  0  0  0  0  0  0
   -0.4235   -0.4094    0.0000 H   0  0  0  0  0  0  0  0  0  0  0  0
    2.4344   -1.2344    0.0000 H   0  0  0  0  0  0  0  0  0  0  0  0
  1  2  1  0  0  0  0
  2  3  1  0  0  0  0
  3  4  4  0  0  0  0
  3 22  4  0  0  0  0
  4  5  4  0  0  0  0
  5  6  1  0  0  0  0
  5 18  4  0  0  0  0
  6  7  2  0  0  0  0
  7  8  1  0  0  0  0
  8  9  4  0  0  0  0
  8 15  4  0  0  0  0
  9 10  4  0  0  0  0
 10 11  4  0  0  0  0
 11 12  1  0  0  0  0
 11 14  4  0  0  0  0
 12 13  1  0  0  0  0
 14 15  4  0  0  0  0
 15 16  1  0  0  0  0
 16 17  1  0  0  0  0
 18 19  4  0  0  0  0
 19 20  1  0  0  0  0
 19 22  4  0  0  0  0
 20 21  1  0  0  0  0
 22 23  1  0  0  0  0
  1 24  1  0  0  0  0
  1 25  1  0  0  0  0
  1 26  1  0  0  0  0
 13 27  1  0  0  0  0
 13 28  1  0  0  0  0
 13 29  1  0  0  0  0
 17 30  1  0  0  0  0
 17 31  1  0  0  0  0
 17 32  1  0  0  0  0
  6 33  1  0  0  0  0
  9 34  1  0  0  0  0
 14 35  1  0  0  0  0
 18 36  1  0  0  0  0
 21 37  1  0  0  0  0
 21 38  1  0  0  0  0
 21 39  1  0  0  0  0
  4 40  1  0  0  0  0
  7 41  1  0  0  0  0
 10 42  1  0  0  0  0
M  END
> <Molecule ChEMBL ID>
CHEMBL46909

> <Class(50)>
0

> <Class(80)>
0

>  <salt>
false

>  <StandardizerResult>
Tautomerize (ID: Tautomerize)
Neutralize (ID: Neutralize)
Aromatize (ID: Aromatize)
Wedge Clean (ID: Wedge Clean)
Clean 2D (ID: Clean2D)

$$$$
CHEMBL472566
  Mrv2010 08032110442D          

 16 17  0  0  0  0            999 V2000
   -2.0980   -0.7110    0.0000 N   0  0  0  0  0  0  0  0  0  0  0  0
   -1.2730   -0.7110    0.0000 C   0  0  0  0  0  0  0  0  0  0  0  0
   -0.7881   -0.0436    0.0000 N   0  0  0  0  0  0  0  0  0  0  0  0
   -0.0034   -0.2985    0.0000 C   0  0  0  0  0  0  0  0  0  0  0  0
    0.7110    0.1140    0.0000 C   0  0  0  0  0  0  0  0  0  0  0  0
    1.4255   -0.2985    0.0000 C   0  0  0  0  0  0  0  0  0  0  0  0
    2.1400    0.1140    0.0000 Cl  0  0  0  0  0  0  0  0  0  0  0  0
    1.4255   -1.1235    0.0000 C   0  0  0  0  0  0  0  0  0  0  0  0
    0.7110   -1.5360    0.0000 C   0  0  0  0  0  0  0  0  0  0  0  0
   -0.0034   -1.1235    0.0000 C   0  0  0  0  0  0  0  0  0  0  0  0
   -0.7881   -1.3785    0.0000 O   0  0  0  0  0  0  0  0  0  0  0  0
   -2.5105    0.0034    0.0000 H   0  0  0  0  0  0  0  0  0  0  0  0
   -2.5105   -1.4255    0.0000 H   0  0  0  0  0  0  0  0  0  0  0  0
    0.7110    0.9390    0.0000 H   0  0  0  0  0  0  0  0  0  0  0  0
    2.1400   -1.5360    0.0000 H   0  0  0  0  0  0  0  0  0  0  0  0
    0.7110   -2.3610    0.0000 H   0  0  0  0  0  0  0  0  0  0  0  0
  1  2  1  0  0  0  0
  2  3  4  0  0  0  0
  2 11  4  0  0  0  0
  3  4  4  0  0  0  0
  4  5  4  0  0  0  0
  4 10  4  0  0  0  0
  5  6  4  0  0  0  0
  6  7  1  0  0  0  0
  6  8  4  0  0  0  0
  8  9  4  0  0  0  0
  9 10  4  0  0  0  0
 10 11  4  0  0  0  0
  1 12  1  0  0  0  0
  1 13  1  0  0  0  0
  5 14  1  0  0  0  0
  8 15  1  0  0  0  0
  9 16  1  0  0  0  0
M  END
> <Molecule ChEMBL ID>
CHEMBL472566

> <Class(50)>
0

> <Class(80)>
0

>  <salt>
false

>  <StandardizerResult>
Tautomerize (ID: Tautomerize)
Neutralize (ID: Neutralize)
Aromatize (ID: Aromatize)
Wedge Clean (ID: Wedge Clean)
Clean 2D (ID: Clean2D)

$$$$
CHEMBL1697856
  Mrv2010 08032110442D          

 33 33  0  0  1  0            999 V2000
   -3.9387   -1.5917    0.0000 C   0  0  0  0  0  0  0  0  0  0  0  0
   -3.2242   -1.1792    0.0000 C   0  0  0  0  0  0  0  0  0  0  0  0
   -3.2242   -0.3542    0.0000 O   0  0  0  0  0  0  0  0  0  0  0  0
   -2.5097    0.0583    0.0000 C   0  0  0  0  0  0  0  0  0  0  0  0
   -2.5097    0.8833    0.0000 C   0  0  0  0  0  0  0  0  0  0  0  0
   -1.7953    1.2958    0.0000 C   0  0  0  0  0  0  0  0  0  0  0  0
   -1.0808    0.8833    0.0000 C   0  0  0  0  0  0  0  0  0  0  0  0
   -0.3663    1.2958    0.0000 N   0  0  0  0  0  0  0  0  0  0  0  0
    0.3482    0.8833    0.0000 C   0  0  0  0  0  0  0  0  0  0  0  0
    0.3482    0.0583    0.0000 O   0  0  0  0  0  0  0  0  0  0  0  0
    1.0626    1.2958    0.0000 C   0  0  0  0  0  0  0  0  0  0  0  0
    1.7771    0.8833    0.0000 C   0  0  1  0  0  0  0  0  0  0  0  0
    2.4916    1.2958    0.0000 C   0  0  0  0  0  0  0  0  0  0  0  0
    1.7771    0.0583    0.0000 O   0  0  0  0  0  0  0  0  0  0  0  0
   -1.0808    0.0583    0.0000 C   0  0  0  0  0  0  0  0  0  0  0  0
   -1.7953   -0.3542    0.0000 C   0  0  0  0  0  0  0  0  0  0  0  0
   -2.7709   -1.8685    0.0000 H   0  0  0  0  0  0  0  0  0  0  0  0
   -2.4006   -1.2272    0.0000 H   0  0  0  0  0  0  0  0  0  0  0  0
   -0.3663   -0.3542    0.0000 H   0  0  0  0  0  0  0  0  0  0  0  0
   -0.3663    2.1208    0.0000 H   0  0  0  0  0  0  0  0  0  0  0  0
   -4.3512   -0.8772    0.0000 H   0  0  0  0  0  0  0  0  0  0  0  0
   -4.6531   -2.0042    0.0000 H   0  0  0  0  0  0  0  0  0  0  0  0
   -3.5262   -2.3062    0.0000 H   0  0  0  0  0  0  0  0  0  0  0  0
   -1.7953    2.1208    0.0000 H   0  0  0  0  0  0  0  0  0  0  0  0
    1.0626   -0.3542    0.0000 H   0  0  0  0  0  0  0  0  0  0  0  0
    1.4329    2.0330    0.0000 H   0  0  0  0  0  0  0  0  0  0  0  0
    0.6924    2.0330    0.0000 H   0  0  0  0  0  0  0  0  0  0  0  0
    1.7771    1.7083    0.0000 H   0  0  0  0  0  0  0  0  0  0  0  0
   -3.2242    1.2958    0.0000 H   0  0  0  0  0  0  0  0  0  0  0  0
    2.7051    0.4989    0.0000 H   0  0  0  0  0  0  0  0  0  0  0  0
    3.3166    1.2958    0.0000 H   0  0  0  0  0  0  0  0  0  0  0  0
    2.7051    2.0927    0.0000 H   0  0  0  0  0  0  0  0  0  0  0  0
   -1.7953   -1.1792    0.0000 H   0  0  0  0  0  0  0  0  0  0  0  0
  1  2  1  0  0  0  0
  2  3  1  0  0  0  0
  3  4  1  0  0  0  0
  4  5  4  0  0  0  0
  4 16  4  0  0  0  0
  5  6  4  0  0  0  0
  6  7  4  0  0  0  0
  7  8  1  0  0  0  0
  7 15  4  0  0  0  0
  8  9  1  0  0  0  0
  9 10  2  0  0  0  0
  9 11  1  0  0  0  0
 12 11  1  0  0  0  0
 12 13  1  0  0  0  0
 12 14  1  0  0  0  0
 15 16  4  0  0  0  0
  2 17  1  0  0  0  0
  2 18  1  0  0  0  0
 15 19  1  0  0  0  0
  8 20  1  0  0  0  0
  1 21  1  0  0  0  0
  1 22  1  0  0  0  0
  1 23  1  0  0  0  0
  6 24  1  0  0  0  0
 14 25  1  0  0  0  0
 11 26  1  0  0  0  0
 11 27  1  0  0  0  0
 12 28  1  6  0  0  0
  5 29  1  0  0  0  0
 13 30  1  0  0  0  0
 13 31  1  0  0  0  0
 13 32  1  0  0  0  0
 16 33  1  0  0  0  0
M  END
> <Molecule ChEMBL ID>
CHEMBL1697856

> <Class(50)>
0

> <Class(80)>
0

>  <salt>
false

>  <StandardizerResult>
Tautomerize (ID: Tautomerize)
Transform (ID: Transform NO2 (1))
Aromatize (ID: Aromatize)
Wedge Clean (ID: Wedge Clean)
Clean 2D (ID: Clean2D)

$$$$
CHEMBL353187
  Mrv2010 08032110442D          

 25 25  0  0  0  0            999 V2000
    0.6780    1.7138    0.0000 C   0  0  0  0  0  0  0  0  0  0  0  0
    0.6780    0.8888    0.0000 C   0  0  0  0  0  0  0  0  0  0  0  0
   -0.0364    0.4763    0.0000 C   0  0  0  0  0  0  0  0  0  0  0  0
    1.3925    0.4763    0.0000 C   0  0  0  0  0  0  0  0  0  0  0  0
    2.1070    0.8888    0.0000 O   0  0  0  0  0  0  0  0  0  0  0  0
    1.3925   -0.3487    0.0000 C   0  0  0  0  0  0  0  0  0  0  0  0
    2.1070   -0.7612    0.0000 C   0  0  0  0  0  0  0  0  0  0  0  0
    2.1070   -1.5862    0.0000 C   0  0  0  0  0  0  0  0  0  0  0  0
    1.3925   -1.9987    0.0000 C   0  0  0  0  0  0  0  0  0  0  0  0
    1.3925   -2.8237    0.0000 O   0  0  0  0  0  0  0  0  0  0  0  0
    0.6780   -1.5862    0.0000 C   0  0  0  0  0  0  0  0  0  0  0  0
   -0.0364   -1.9987    0.0000 O   0  0  0  0  0  0  0  0  0  0  0  0
    0.6780   -0.7612    0.0000 C   0  0  0  0  0  0  0  0  0  0  0  0
    0.6780   -3.2362    0.0000 H   0  0  0  0  0  0  0  0  0  0  0  0
   -0.7509   -1.5862    0.0000 H   0  0  0  0  0  0  0  0  0  0  0  0
    1.5030    1.7138    0.0000 H   0  0  0  0  0  0  0  0  0  0  0  0
    0.6780    2.5388    0.0000 H   0  0  0  0  0  0  0  0  0  0  0  0
   -0.1470    1.7138    0.0000 H   0  0  0  0  0  0  0  0  0  0  0  0
   -0.8333    0.6898    0.0000 H   0  0  0  0  0  0  0  0  0  0  0  0
   -0.4489   -0.2382    0.0000 H   0  0  0  0  0  0  0  0  0  0  0  0
    0.5469   -0.1071    0.0000 H   0  0  0  0  0  0  0  0  0  0  0  0
   -0.0364    1.3013    0.0000 H   0  0  0  0  0  0  0  0  0  0  0  0
    2.8214   -1.9987    0.0000 H   0  0  0  0  0  0  0  0  0  0  0  0
    2.8214   -0.3487    0.0000 H   0  0  0  0  0  0  0  0  0  0  0  0
   -0.1429   -0.8427    0.0000 H   0  0  0  0  0  0  0  0  0  0  0  0
  1  2  1  0  0  0  0
  2  3  1  0  0  0  0
  2  4  1  0  0  0  0
  4  5  2  0  0  0  0
  4  6  1  0  0  0  0
  6  7  4  0  0  0  0
  6 13  4  0  0  0  0
  7  8  4  0  0  0  0
  8  9  4  0  0  0  0
  9 10  1  0  0  0  0
  9 11  4  0  0  0  0
 11 12  1  0  0  0  0
 11 13  4  0  0  0  0
 10 14  1  0  0  0  0
 12 15  1  0  0  0  0
  1 16  1  0  0  0  0
  1 17  1  0  0  0  0
  1 18  1  0  0  0  0
  3 19  1  0  0  0  0
  3 20  1  0  0  0  0
  3 21  1  0  0  0  0
  2 22  1  0  0  0  0
  8 23  1  0  0  0  0
  7 24  1  0  0  0  0
 13 25  1  0  0  0  0
M  END
> <Molecule ChEMBL ID>
CHEMBL353187

> <Class(50)>
0

> <Class(80)>
0

>  <salt>
false

>  <StandardizerResult>
Tautomerize (ID: Tautomerize)
Neutralize (ID: Neutralize)
Aromatize (ID: Aromatize)
Wedge Clean (ID: Wedge Clean)
Clean 2D (ID: Clean2D)

$$$$
CHEMBL1469
  Mrv2010 08032110442D          

 24 24  0  0  0  0            999 V2000
   -1.5976    0.0911    0.0000 O   0  0  0  0  0  0  0  0  0  0  0  0
   -0.8831   -0.3214    0.0000 C   0  0  0  0  0  0  0  0  0  0  0  0
   -0.8831   -1.1464    0.0000 O   0  0  0  0  0  0  0  0  0  0  0  0
   -0.1686    0.0911    0.0000 C   0  0  0  0  0  0  0  0  0  0  0  0
    0.5458   -0.3214    0.0000 C   0  0  0  0  0  0  0  0  0  0  0  0
    1.2603    0.0911    0.0000 C   0  0  0  0  0  0  0  0  0  0  0  0
    1.9748   -0.3214    0.0000 C   0  0  0  0  0  0  0  0  0  0  0  0
    2.6892    0.0911    0.0000 C   0  0  0  0  0  0  0  0  0  0  0  0
    3.4037   -0.3214    0.0000 C   0  0  0  0  0  0  0  0  0  0  0  0
    3.4037   -1.1464    0.0000 C   0  0  0  0  0  0  0  0  0  0  0  0
    2.6892   -1.5589    0.0000 C   0  0  0  0  0  0  0  0  0  0  0  0
    1.9748   -1.1464    0.0000 C   0  0  0  0  0  0  0  0  0  0  0  0
    2.6892    0.9161    0.0000 H   0  0  0  0  0  0  0  0  0  0  0  0
    4.1182   -1.5589    0.0000 H   0  0  0  0  0  0  0  0  0  0  0  0
    1.2603   -1.5589    0.0000 H   0  0  0  0  0  0  0  0  0  0  0  0
    1.6306    0.8283    0.0000 H   0  0  0  0  0  0  0  0  0  0  0  0
    0.8900    0.8283    0.0000 H   0  0  0  0  0  0  0  0  0  0  0  0
    4.1182    0.0911    0.0000 H   0  0  0  0  0  0  0  0  0  0  0  0
    2.6892   -2.3839    0.0000 H   0  0  0  0  0  0  0  0  0  0  0  0
    0.1756   -1.0587    0.0000 H   0  0  0  0  0  0  0  0  0  0  0  0
    0.9161   -1.0587    0.0000 H   0  0  0  0  0  0  0  0  0  0  0  0
   -1.5976   -1.5589    0.0000 H   0  0  0  0  0  0  0  0  0  0  0  0
    0.2016    0.8283    0.0000 H   0  0  0  0  0  0  0  0  0  0  0  0
   -0.5389    0.8283    0.0000 H   0  0  0  0  0  0  0  0  0  0  0  0
  1  2  2  0  0  0  0
  2  3  1  0  0  0  0
  2  4  1  0  0  0  0
  4  5  1  0  0  0  0
  5  6  1  0  0  0  0
  6  7  1  0  0  0  0
  7  8  4  0  0  0  0
  7 12  4  0  0  0  0
  8  9  4  0  0  0  0
  9 10  4  0  0  0  0
 10 11  4  0  0  0  0
 11 12  4  0  0  0  0
  8 13  1  0  0  0  0
 10 14  1  0  0  0  0
 12 15  1  0  0  0  0
  6 16  1  0  0  0  0
  6 17  1  0  0  0  0
  9 18  1  0  0  0  0
 11 19  1  0  0  0  0
  5 20  1  0  0  0  0
  5 21  1  0  0  0  0
  3 22  1  0  0  0  0
  4 23  1  0  0  0  0
  4 24  1  0  0  0  0
M  END
> <Molecule ChEMBL ID>
CHEMBL1469

> <Class(50)>
0

> <Class(80)>
0

>  <salt>
false

>  <StandardizerResult>
Tautomerize (ID: Tautomerize)
Neutralize (ID: Neutralize)
Aromatize (ID: Aromatize)
Wedge Clean (ID: Wedge Clean)
Clean 2D (ID: Clean2D)

$$$$
CHEMBL1371
  Mrv2010 08032110442D          

 15 16  0  0  0  0            999 V2000
   -2.2664   -0.5427    0.0000 O   0  0  0  0  0  0  0  0  0  0  0  0
   -1.4414   -0.5427    0.0000 C   0  0  0  0  0  0  0  0  0  0  0  0
   -0.9564    0.1248    0.0000 N   0  0  0  0  0  0  0  0  0  0  0  0
   -0.1718   -0.1302    0.0000 C   0  0  0  0  0  0  0  0  0  0  0  0
    0.5426    0.2823    0.0000 C   0  0  0  0  0  0  0  0  0  0  0  0
    1.2571   -0.1302    0.0000 C   0  0  0  0  0  0  0  0  0  0  0  0
    1.9716    0.2823    0.0000 Cl  0  0  0  0  0  0  0  0  0  0  0  0
    1.2571   -0.9552    0.0000 C   0  0  0  0  0  0  0  0  0  0  0  0
    0.5426   -1.3677    0.0000 C   0  0  0  0  0  0  0  0  0  0  0  0
   -0.1718   -0.9552    0.0000 C   0  0  0  0  0  0  0  0  0  0  0  0
   -0.9564   -1.2101    0.0000 O   0  0  0  0  0  0  0  0  0  0  0  0
    1.9716   -1.3677    0.0000 H   0  0  0  0  0  0  0  0  0  0  0  0
    0.5426    1.1073    0.0000 H   0  0  0  0  0  0  0  0  0  0  0  0
   -1.2114    0.9094    0.0000 H   0  0  0  0  0  0  0  0  0  0  0  0
    0.5426   -2.1927    0.0000 H   0  0  0  0  0  0  0  0  0  0  0  0
  1  2  2  0  0  0  0
  2  3  1  0  0  0  0
  2 11  1  0  0  0  0
  3  4  1  0  0  0  0
  4  5  4  0  0  0  0
  4 10  4  0  0  0  0
  5  6  4  0  0  0  0
  6  7  1  0  0  0  0
  6  8  4  0  0  0  0
  8  9  4  0  0  0  0
  9 10  4  0  0  0  0
 10 11  1  0  0  0  0
  8 12  1  0  0  0  0
  5 13  1  0  0  0  0
  3 14  1  0  0  0  0
  9 15  1  0  0  0  0
M  END
> <Molecule ChEMBL ID>
CHEMBL1371

> <Class(50)>
0

> <Class(80)>
0

>  <salt>
false

>  <StandardizerResult>
Tautomerize (ID: Tautomerize)
Neutralize (ID: Neutralize)
Aromatize (ID: Aromatize)
Wedge Clean (ID: Wedge Clean)
Clean 2D (ID: Clean2D)

$$$$
CHEMBL3782004
  Mrv2010 08032110442D          

 31 33  0  0  1  0            999 V2000
    0.8984   -0.7390    0.0000 N   0  0  0  0  0  0  0  0  0  0  0  0
    0.1839   -0.3265    0.0000 C   0  0  0  0  0  0  0  0  0  0  0  0
   -0.5306   -0.7390    0.0000 N   0  0  0  0  0  0  0  0  0  0  0  0
   -1.2450   -0.3265    0.0000 C   0  0  0  0  0  0  0  0  0  0  0  0
   -1.9595   -0.7390    0.0000 N   0  0  0  0  0  0  0  0  0  0  0  0
   -1.9595   -1.5640    0.0000 C   0  0  0  0  0  0  0  0  0  0  0  0
   -1.5470   -2.2785    0.0000 C   0  0  0  0  0  0  0  0  0  0  0  0
   -2.3720   -2.2785    0.0000 C   0  0  0  0  0  0  0  0  0  0  0  0
   -1.2450    0.4985    0.0000 C   0  0  0  0  0  0  0  0  0  0  0  0
   -0.5306    0.9110    0.0000 C   0  0  0  0  0  0  0  0  0  0  0  0
   -0.5306    1.7360    0.0000 C   0  0  0  0  0  0  0  0  0  0  0  0
   -1.2450    2.1485    0.0000 C   0  0  0  0  0  0  0  0  0  0  0  0
   -1.2450    2.9735    0.0000 C   0  0  0  0  0  0  0  0  0  0  0  0
   -0.5306    3.3860    0.0000 C   0  0  0  0  0  0  0  0  0  0  0  0
    0.1839    2.9735    0.0000 C   0  0  0  0  0  0  0  0  0  0  0  0
    0.8984    3.3860    0.0000 Cl  0  0  0  0  0  0  0  0  0  0  0  0
    0.1839    2.1485    0.0000 C   0  0  0  0  0  0  0  0  0  0  0  0
    0.8984    1.7360    0.0000 Cl  0  0  0  0  0  0  0  0  0  0  0  0
    0.1839    0.4985    0.0000 N   0  0  0  0  0  0  0  0  0  0  0  0
   -1.9595    3.3860    0.0000 H   0  0  0  0  0  0  0  0  0  0  0  0
   -2.6740   -0.3265    0.0000 H   0  0  0  0  0  0  0  0  0  0  0  0
    0.8984   -1.5640    0.0000 H   0  0  0  0  0  0  0  0  0  0  0  0
    1.6128   -0.3265    0.0000 H   0  0  0  0  0  0  0  0  0  0  0  0
   -3.1956   -2.2305    0.0000 H   0  0  0  0  0  0  0  0  0  0  0  0
   -2.7423   -3.0157    0.0000 H   0  0  0  0  0  0  0  0  0  0  0  0
   -1.9595    0.9110    0.0000 H   0  0  0  0  0  0  0  0  0  0  0  0
   -1.9595    1.7360    0.0000 H   0  0  0  0  0  0  0  0  0  0  0  0
   -0.5306    4.2110    0.0000 H   0  0  0  0  0  0  0  0  0  0  0  0
   -1.1768   -3.0157    0.0000 H   0  0  0  0  0  0  0  0  0  0  0  0
   -0.7234   -2.2305    0.0000 H   0  0  0  0  0  0  0  0  0  0  0  0
   -2.7564   -1.3505    0.0000 H   0  0  0  0  0  0  0  0  0  0  0  0
  1  2  1  0  0  0  0
  2  3  4  0  0  0  0
  2 19  4  0  0  0  0
  3  4  4  0  0  0  0
  4  5  1  0  0  0  0
  4  9  4  0  0  0  0
  5  6  1  0  0  0  0
  6  7  1  0  0  0  0
  6  8  1  0  0  0  0
  7  8  1  0  0  0  0
  9 10  4  0  0  0  0
 10 11  1  0  0  0  0
 10 19  4  0  0  0  0
 11 12  4  0  0  0  0
 11 17  4  0  0  0  0
 12 13  4  0  0  0  0
 13 14  4  0  0  0  0
 14 15  4  0  0  0  0
 15 16  1  0  0  0  0
 15 17  4  0  0  0  0
 17 18  1  0  0  0  0
 13 20  1  0  0  0  0
  5 21  1  0  0  0  0
  1 22  1  0  0  0  0
  1 23  1  0  0  0  0
  8 24  1  0  0  0  0
  8 25  1  0  0  0  0
  9 26  1  0  0  0  0
 12 27  1  0  0  0  0
 14 28  1  0  0  0  0
  7 29  1  0  0  0  0
  7 30  1  0  0  0  0
  6 31  1  0  0  0  0
M  END
> <Molecule ChEMBL ID>
CHEMBL3782004

> <Class(50)>
0

> <Class(80)>
0

>  <salt>
false

>  <StandardizerResult>
Tautomerize (ID: Tautomerize)
Transform (ID: Transform NO2 (1))
Aromatize (ID: Aromatize)
Wedge Clean (ID: Wedge Clean)
Clean 2D (ID: Clean2D)

$$$$
CHEMBL62
  Mrv2010 08032110442D          

 38 40  0  0  1  0            999 V2000
    1.7394   -1.4574    0.0000 C   0  0  0  0  0  0  0  0  0  0  0  0
    0.9144   -1.4574    0.0000 N   0  0  0  0  0  0  0  0  0  0  0  0
    0.5565   -2.2007    0.0000 C   0  0  0  0  0  0  0  0  0  0  0  0
   -0.2478   -2.3842    0.0000 C   0  0  0  0  0  0  0  0  0  0  0  0
   -0.8928   -1.8699    0.0000 C   0  0  0  0  0  0  0  0  0  0  0  0
   -1.6073   -2.2824    0.0000 C   0  0  0  0  0  0  0  0  0  0  0  0
   -2.3218   -1.8699    0.0000 C   0  0  0  0  0  0  0  0  0  0  0  0
   -3.0363   -2.2824    0.0000 Cl  0  0  0  0  0  0  0  0  0  0  0  0
   -2.3218   -1.0449    0.0000 C   0  0  0  0  0  0  0  0  0  0  0  0
   -3.0363   -0.6324    0.0000 O   0  0  0  0  0  0  0  0  0  0  0  0
   -1.6073   -0.6324    0.0000 C   0  0  0  0  0  0  0  0  0  0  0  0
   -0.8928   -1.0449    0.0000 C   0  0  0  0  0  0  0  0  0  0  0  0
   -0.2478   -0.5305    0.0000 C   0  0  0  0  0  0  0  0  0  0  0  0
   -0.4314    0.2738    0.0000 C   0  0  0  0  0  0  0  0  0  0  0  0
   -1.2198    0.5170    0.0000 C   0  0  0  0  0  0  0  0  0  0  0  0
   -1.4033    1.3213    0.0000 C   0  0  0  0  0  0  0  0  0  0  0  0
   -0.7986    1.8825    0.0000 C   0  0  0  0  0  0  0  0  0  0  0  0
   -0.0102    1.6393    0.0000 C   0  0  0  0  0  0  0  0  0  0  0  0
    0.1734    0.8350    0.0000 C   0  0  0  0  0  0  0  0  0  0  0  0
    0.5565   -0.7141    0.0000 C   0  0  0  0  0  0  0  0  0  0  0  0
    1.7394   -2.2824    0.0000 H   0  0  0  0  0  0  0  0  0  0  0  0
    2.5644   -1.4574    0.0000 H   0  0  0  0  0  0  0  0  0  0  0  0
    1.7394   -0.6324    0.0000 H   0  0  0  0  0  0  0  0  0  0  0  0
    1.3272   -0.4199    0.0000 H   0  0  0  0  0  0  0  0  0  0  0  0
    0.0421   -1.3591    0.0000 H   0  0  0  0  0  0  0  0  0  0  0  0
   -2.1917    1.5645    0.0000 H   0  0  0  0  0  0  0  0  0  0  0  0
    0.5945    2.2004    0.0000 H   0  0  0  0  0  0  0  0  0  0  0  0
   -1.6073   -3.1074    0.0000 H   0  0  0  0  0  0  0  0  0  0  0  0
   -1.0568   -0.2917    0.0000 H   0  0  0  0  0  0  0  0  0  0  0  0
    0.3355    0.0529    0.0000 H   0  0  0  0  0  0  0  0  0  0  0  0
   -0.7622   -3.0293    0.0000 H   0  0  0  0  0  0  0  0  0  0  0  0
   -0.0642   -3.1886    0.0000 H   0  0  0  0  0  0  0  0  0  0  0  0
    0.7401   -3.0050    0.0000 H   0  0  0  0  0  0  0  0  0  0  0  0
    1.2998   -2.5586    0.0000 H   0  0  0  0  0  0  0  0  0  0  0  0
    0.9795    1.0105    0.0000 H   0  0  0  0  0  0  0  0  0  0  0  0
   -3.0363    0.1926    0.0000 H   0  0  0  0  0  0  0  0  0  0  0  0
   -0.9821    2.6868    0.0000 H   0  0  0  0  0  0  0  0  0  0  0  0
   -1.6073    0.1926    0.0000 H   0  0  0  0  0  0  0  0  0  0  0  0
  1  2  1  0  0  0  0
  2  3  1  0  0  0  0
  2 20  1  0  0  0  0
  3  4  1  0  0  0  0
  4  5  1  0  0  0  0
  5  6  4  0  0  0  0
  5 12  4  0  0  0  0
  6  7  4  0  0  0  0
  7  8  1  0  0  0  0
  7  9  4  0  0  0  0
  9 10  1  0  0  0  0
  9 11  4  0  0  0  0
 11 12  4  0  0  0  0
 12 13  1  0  0  0  0
 13 14  1  0  0  0  0
 13 20  1  0  0  0  0
 14 15  4  0  0  0  0
 14 19  4  0  0  0  0
 15 16  4  0  0  0  0
 16 17  4  0  0  0  0
 17 18  4  0  0  0  0
 18 19  4  0  0  0  0
  1 21  1  0  0  0  0
  1 22  1  0  0  0  0
  1 23  1  0  0  0  0
 20 24  1  0  0  0  0
 20 25  1  0  0  0  0
 16 26  1  0  0  0  0
 18 27  1  0  0  0  0
  6 28  1  0  0  0  0
 15 29  1  0  0  0  0
 13 30  1  0  0  0  0
  4 31  1  0  0  0  0
  4 32  1  0  0  0  0
  3 33  1  0  0  0  0
  3 34  1  0  0  0  0
 19 35  1  0  0  0  0
 10 36  1  0  0  0  0
 17 37  1  0  0  0  0
 11 38  1  0  0  0  0
M  END
> <Molecule ChEMBL ID>
CHEMBL62

> <Class(50)>
0

> <Class(80)>
0

>  <salt>
false

>  <StandardizerResult>
Tautomerize (ID: Tautomerize)
Transform (ID: Transform NO2 (1))
Aromatize (ID: Aromatize)
Wedge Clean (ID: Wedge Clean)
Clean 2D (ID: Clean2D)

$$$$
CHEMBL1229908
  Mrv2010 08032110442D          

 33 33  0  0  0  0            999 V2000
    0.5488    2.0026    0.0000 C   0  0  0  0  0  0  0  0  0  0  0  0
    1.2633    1.5901    0.0000 C   0  0  0  0  0  0  0  0  0  0  0  0
    1.2633    0.7651    0.0000 N   0  0  0  0  0  0  0  0  0  0  0  0
    0.5488    0.3526    0.0000 C   0  0  0  0  0  0  0  0  0  0  0  0
    0.5488   -0.4724    0.0000 C   0  0  0  0  0  0  0  0  0  0  0  0
    1.9778    0.3526    0.0000 C   0  0  0  0  0  0  0  0  0  0  0  0
    2.6922    0.7651    0.0000 O   0  0  0  0  0  0  0  0  0  0  0  0
    1.9778   -0.4724    0.0000 C   0  0  0  0  0  0  0  0  0  0  0  0
    2.6922   -0.8849    0.0000 C   0  0  0  0  0  0  0  0  0  0  0  0
    2.6922   -1.7099    0.0000 C   0  0  0  0  0  0  0  0  0  0  0  0
    1.9778   -2.1224    0.0000 C   0  0  0  0  0  0  0  0  0  0  0  0
    1.9778   -2.9474    0.0000 O   0  0  0  0  0  0  0  0  0  0  0  0
    1.2633   -1.7099    0.0000 C   0  0  0  0  0  0  0  0  0  0  0  0
    0.5488   -2.1224    0.0000 O   0  0  0  0  0  0  0  0  0  0  0  0
   -0.1657   -1.7099    0.0000 C   0  0  0  0  0  0  0  0  0  0  0  0
    1.2633   -0.8849    0.0000 C   0  0  0  0  0  0  0  0  0  0  0  0
    1.2633   -3.3599    0.0000 H   0  0  0  0  0  0  0  0  0  0  0  0
    3.4067   -0.4724    0.0000 H   0  0  0  0  0  0  0  0  0  0  0  0
    0.0955    1.0419    0.0000 H   0  0  0  0  0  0  0  0  0  0  0  0
   -0.2748    0.4006    0.0000 H   0  0  0  0  0  0  0  0  0  0  0  0
   -0.1657   -0.0599    0.0000 H   0  0  0  0  0  0  0  0  0  0  0  0
   -0.1657   -0.8849    0.0000 H   0  0  0  0  0  0  0  0  0  0  0  0
    0.5488   -1.2974    0.0000 H   0  0  0  0  0  0  0  0  0  0  0  0
    3.4067   -2.1224    0.0000 H   0  0  0  0  0  0  0  0  0  0  0  0
    1.2633   -0.0599    0.0000 H   0  0  0  0  0  0  0  0  0  0  0  0
    2.0869    1.6381    0.0000 H   0  0  0  0  0  0  0  0  0  0  0  0
    1.7166    2.2794    0.0000 H   0  0  0  0  0  0  0  0  0  0  0  0
   -0.8801   -1.2974    0.0000 H   0  0  0  0  0  0  0  0  0  0  0  0
   -0.8801   -2.1224    0.0000 H   0  0  0  0  0  0  0  0  0  0  0  0
   -0.1657   -2.5349    0.0000 H   0  0  0  0  0  0  0  0  0  0  0  0
    0.9613    2.7171    0.0000 H   0  0  0  0  0  0  0  0  0  0  0  0
   -0.1657    2.4151    0.0000 H   0  0  0  0  0  0  0  0  0  0  0  0
    0.1363    1.2881    0.0000 H   0  0  0  0  0  0  0  0  0  0  0  0
  1  2  1  0  0  0  0
  2  3  1  0  0  0  0
  3  4  1  0  0  0  0
  3  6  1  0  0  0  0
  4  5  1  0  0  0  0
  6  7  2  0  0  0  0
  6  8  1  0  0  0  0
  8  9  4  0  0  0  0
  8 16  4  0  0  0  0
  9 10  4  0  0  0  0
 10 11  4  0  0  0  0
 11 12  1  0  0  0  0
 11 13  4  0  0  0  0
 13 14  1  0  0  0  0
 13 16  4  0  0  0  0
 14 15  1  0  0  0  0
 12 17  1  0  0  0  0
  9 18  1  0  0  0  0
  4 19  1  0  0  0  0
  4 20  1  0  0  0  0
  5 21  1  0  0  0  0
  5 22  1  0  0  0  0
  5 23  1  0  0  0  0
 10 24  1  0  0  0  0
 16 25  1  0  0  0  0
  2 26  1  0  0  0  0
  2 27  1  0  0  0  0
 15 28  1  0  0  0  0
 15 29  1  0  0  0  0
 15 30  1  0  0  0  0
  1 31  1  0  0  0  0
  1 32  1  0  0  0  0
  1 33  1  0  0  0  0
M  END
> <Molecule ChEMBL ID>
CHEMBL1229908

> <Class(50)>
0

> <Class(80)>
0

>  <salt>
false

>  <StandardizerResult>
Tautomerize (ID: Tautomerize)
Neutralize (ID: Neutralize)
Aromatize (ID: Aromatize)
Wedge Clean (ID: Wedge Clean)
Clean 2D (ID: Clean2D)

$$$$
CHEMBL2139597
  Mrv2010 08032110442D          

 31 32  0  0  1  0            999 V2000
   -0.2273    1.0105    0.0000 C   0  0  0  0  0  0  0  0  0  0  0  0
   -0.9418    0.5980    0.0000 C   0  0  0  0  0  0  0  0  0  0  0  0
   -0.9418   -0.2270    0.0000 C   0  0  0  0  0  0  0  0  0  0  0  0
   -1.6092   -0.7119    0.0000 C   0  0  0  0  0  0  0  0  0  0  0  0
   -2.3938   -0.4570    0.0000 O   0  0  0  0  0  0  0  0  0  0  0  0
   -1.3543   -1.4965    0.0000 O   0  0  0  0  0  0  0  0  0  0  0  0
   -0.5293   -1.4965    0.0000 C   0  0  0  0  0  0  0  0  0  0  0  0
   -0.2743   -0.7119    0.0000 C   0  0  0  0  0  0  0  0  0  0  0  0
    0.5103   -0.4570    0.0000 C   0  0  0  0  0  0  0  0  0  0  0  0
    1.1234   -1.0090    0.0000 C   0  0  0  0  0  0  0  0  0  0  0  0
    1.9304   -0.8375    0.0000 C   0  0  0  0  0  0  0  0  0  0  0  0
    2.3429   -1.5520    0.0000 N   0  0  0  0  0  0  0  0  0  0  0  0
    1.7908   -2.1650    0.0000 C   0  0  0  0  0  0  0  0  0  0  0  0
    1.0371   -1.8295    0.0000 N   0  0  0  0  0  0  0  0  0  0  0  0
    0.3227   -2.2420    0.0000 C   0  0  0  0  0  0  0  0  0  0  0  0
    0.3090   -1.2953    0.0000 H   0  0  0  0  0  0  0  0  0  0  0  0
    2.5652   -0.3106    0.0000 H   0  0  0  0  0  0  0  0  0  0  0  0
    1.9623   -2.9720    0.0000 H   0  0  0  0  0  0  0  0  0  0  0  0
   -1.3951    1.2873    0.0000 H   0  0  0  0  0  0  0  0  0  0  0  0
   -1.7654    0.6460    0.0000 H   0  0  0  0  0  0  0  0  0  0  0  0
    0.1852    0.2960    0.0000 H   0  0  0  0  0  0  0  0  0  0  0  0
    0.4872    1.4230    0.0000 H   0  0  0  0  0  0  0  0  0  0  0  0
   -0.6398    1.7250    0.0000 H   0  0  0  0  0  0  0  0  0  0  0  0
   -0.2067    0.1476    0.0000 H   0  0  0  0  0  0  0  0  0  0  0  0
   -0.1308   -2.9312    0.0000 H   0  0  0  0  0  0  0  0  0  0  0  0
    0.5745   -3.0276    0.0000 H   0  0  0  0  0  0  0  0  0  0  0  0
    1.0923   -2.5392    0.0000 H   0  0  0  0  0  0  0  0  0  0  0  0
    1.3233   -0.3168    0.0000 H   0  0  0  0  0  0  0  0  0  0  0  0
    0.9031    0.2685    0.0000 H   0  0  0  0  0  0  0  0  0  0  0  0
   -0.4145   -2.3135    0.0000 H   0  0  0  0  0  0  0  0  0  0  0  0
    0.2122   -1.8582    0.0000 H   0  0  0  0  0  0  0  0  0  0  0  0
  1  2  1  0  0  0  0
  2  3  1  0  0  0  0
  3  4  1  0  0  0  0
  3  8  1  0  0  0  0
  4  5  2  0  0  0  0
  4  6  1  0  0  0  0
  6  7  1  0  0  0  0
  7  8  1  0  0  0  0
  8  9  1  0  0  0  0
  9 10  1  0  0  0  0
 10 11  4  0  0  0  0
 10 14  4  0  0  0  0
 11 12  4  0  0  0  0
 12 13  4  0  0  0  0
 13 14  4  0  0  0  0
 14 15  1  0  0  0  0
  8 16  1  0  0  0  0
 11 17  1  0  0  0  0
 13 18  1  0  0  0  0
  2 19  1  0  0  0  0
  2 20  1  0  0  0  0
  1 21  1  0  0  0  0
  1 22  1  0  0  0  0
  1 23  1  0  0  0  0
  3 24  1  0  0  0  0
 15 25  1  0  0  0  0
 15 26  1  0  0  0  0
 15 27  1  0  0  0  0
  9 28  1  0  0  0  0
  9 29  1  0  0  0  0
  7 30  1  0  0  0  0
  7 31  1  0  0  0  0
M  END
> <Molecule ChEMBL ID>
CHEMBL2139597

> <Class(50)>
0

> <Class(80)>
0

>  <salt>
true

>  <StandardizerResult>
Tautomerize (ID: Tautomerize)
Transform (ID: Transform NO2 (1))
Aromatize (ID: Aromatize)
Wedge Clean (ID: Wedge Clean)
Clean 2D (ID: Clean2D)

$$$$
CHEMBL501778
  Mrv2010 08032110442D          

 37 39  0  0  1  0            999 V2000
   -2.3868   -3.1197    0.0000 O   0  0  0  0  0  0  0  0  0  0  0  0
   -1.6723   -2.7072    0.0000 C   0  0  0  0  0  0  0  0  0  0  0  0
   -1.6723   -1.8822    0.0000 C   0  0  0  0  0  0  0  0  0  0  0  0
   -0.9579   -1.4697    0.0000 C   0  0  0  0  0  0  0  0  0  0  0  0
   -0.2434   -1.8822    0.0000 C   0  0  0  0  0  0  0  0  0  0  0  0
    0.4711   -1.4697    0.0000 C   0  0  0  0  0  0  0  0  0  0  0  0
    0.4711   -0.6447    0.0000 C   0  0  1  0  0  0  0  0  0  0  0  0
   -0.2434   -0.2322    0.0000 N   0  0  0  0  0  0  0  0  0  0  0  0
   -0.2434    0.5928    0.0000 C   0  0  0  0  0  0  0  0  0  0  0  0
    0.4711    1.0053    0.0000 C   0  0  0  0  0  0  0  0  0  0  0  0
    1.1855    0.5928    0.0000 C   0  0  0  0  0  0  0  0  0  0  0  0
    1.9000    1.0053    0.0000 C   0  0  0  0  0  0  0  0  0  0  0  0
    2.6145    0.5928    0.0000 C   0  0  0  0  0  0  0  0  0  0  0  0
    3.3290    1.0053    0.0000 O   0  0  0  0  0  0  0  0  0  0  0  0
    2.6145   -0.2322    0.0000 C   0  0  0  0  0  0  0  0  0  0  0  0
    3.3290   -0.6447    0.0000 O   0  0  0  0  0  0  0  0  0  0  0  0
    1.9000   -0.6447    0.0000 C   0  0  0  0  0  0  0  0  0  0  0  0
    1.1855   -0.2322    0.0000 C   0  0  0  0  0  0  0  0  0  0  0  0
   -0.2434   -2.7072    0.0000 C   0  0  0  0  0  0  0  0  0  0  0  0
   -0.9579   -3.1197    0.0000 C   0  0  0  0  0  0  0  0  0  0  0  0
   -0.6967    1.2820    0.0000 H   0  0  0  0  0  0  0  0  0  0  0  0
   -1.0670    0.6407    0.0000 H   0  0  0  0  0  0  0  0  0  0  0  0
   -2.3868   -1.4697    0.0000 H   0  0  0  0  0  0  0  0  0  0  0  0
    0.4711   -3.1197    0.0000 H   0  0  0  0  0  0  0  0  0  0  0  0
   -3.1013   -2.7072    0.0000 H   0  0  0  0  0  0  0  0  0  0  0  0
    2.3125   -1.3592    0.0000 H   0  0  0  0  0  0  0  0  0  0  0  0
    4.0434    0.5928    0.0000 H   0  0  0  0  0  0  0  0  0  0  0  0
    0.8413    1.7425    0.0000 H   0  0  0  0  0  0  0  0  0  0  0  0
    0.1008    1.7425    0.0000 H   0  0  0  0  0  0  0  0  0  0  0  0
   -0.9579   -3.9447    0.0000 H   0  0  0  0  0  0  0  0  0  0  0  0
    1.1855   -1.0572    0.0000 H   0  0  0  0  0  0  0  0  0  0  0  0
   -0.9579   -0.6447    0.0000 H   0  0  0  0  0  0  0  0  0  0  0  0
    0.9244   -2.1590    0.0000 H   0  0  0  0  0  0  0  0  0  0  0  0
    1.2947   -1.5177    0.0000 H   0  0  0  0  0  0  0  0  0  0  0  0
   -0.2434   -1.0572    0.0000 H   0  0  0  0  0  0  0  0  0  0  0  0
    3.3290   -1.4697    0.0000 H   0  0  0  0  0  0  0  0  0  0  0  0
    1.9000    1.8303    0.0000 H   0  0  0  0  0  0  0  0  0  0  0  0
  1  2  1  0  0  0  0
  2  3  4  0  0  0  0
  2 20  4  0  0  0  0
  3  4  4  0  0  0  0
  4  5  4  0  0  0  0
  5  6  1  0  0  0  0
  5 19  4  0  0  0  0
  7  6  1  0  0  0  0
  7  8  1  0  0  0  0
  7 18  1  0  0  0  0
  8  9  1  0  0  0  0
  9 10  1  0  0  0  0
 10 11  1  0  0  0  0
 11 12  4  0  0  0  0
 11 18  4  0  0  0  0
 12 13  4  0  0  0  0
 13 14  1  0  0  0  0
 13 15  4  0  0  0  0
 15 16  1  0  0  0  0
 15 17  4  0  0  0  0
 17 18  4  0  0  0  0
 19 20  4  0  0  0  0
  9 21  1  0  0  0  0
  9 22  1  0  0  0  0
  3 23  1  0  0  0  0
 19 24  1  0  0  0  0
  1 25  1  0  0  0  0
 17 26  1  0  0  0  0
 14 27  1  0  0  0  0
 10 28  1  0  0  0  0
 10 29  1  0  0  0  0
 20 30  1  0  0  0  0
  7 31  1  6  0  0  0
  4 32  1  0  0  0  0
  6 33  1  0  0  0  0
  6 34  1  0  0  0  0
  8 35  1  0  0  0  0
 16 36  1  0  0  0  0
 12 37  1  0  0  0  0
M  END
> <Molecule ChEMBL ID>
CHEMBL501778

> <Class(50)>
0

> <Class(80)>
0

>  <salt>
false

>  <StandardizerResult>
Tautomerize (ID: Tautomerize)
Transform (ID: Transform NO2 (1))
Aromatize (ID: Aromatize)
Wedge Clean (ID: Wedge Clean)
Clean 2D (ID: Clean2D)

$$$$
CHEMBL3629569
  Mrv2010 08032110442D          

 43 46  0  0  1  0            999 V2000
    0.1760   -2.0527    0.0000 O   0  0  0  0  0  0  0  0  0  0  0  0
    0.8822   -1.6262    0.0000 C   0  0  0  0  0  0  0  0  0  0  0  0
    1.6047   -2.0246    0.0000 C   0  0  0  0  0  0  0  0  0  0  0  0
    1.6210   -2.8494    0.0000 C   0  0  0  0  0  0  0  0  0  0  0  0
    2.2978   -3.3211    0.0000 C   0  0  0  0  0  0  0  0  0  0  0  0
    3.1013   -3.1337    0.0000 C   0  0  0  0  0  0  0  0  0  0  0  0
    3.6653   -3.7358    0.0000 C   0  0  0  0  0  0  0  0  0  0  0  0
    3.4259   -4.5253    0.0000 C   0  0  0  0  0  0  0  0  0  0  0  0
    2.6224   -4.7127    0.0000 C   0  0  0  0  0  0  0  0  0  0  0  0
    2.0584   -4.1106    0.0000 C   0  0  0  0  0  0  0  0  0  0  0  0
    1.2336   -4.1268    0.0000 C   0  0  0  0  0  0  0  0  0  0  0  0
    0.5758   -4.6248    0.0000 C   0  0  0  0  0  0  0  0  0  0  0  0
   -0.1010   -4.1532    0.0000 N   0  0  0  0  0  0  0  0  0  0  0  0
    0.1384   -3.3637    0.0000 C   0  0  0  0  0  0  0  0  0  0  0  0
    0.9632   -3.3474    0.0000 N   0  0  0  0  0  0  0  0  0  0  0  0
    0.8660   -0.8014    0.0000 C   0  0  0  0  0  0  0  0  0  0  0  0
    0.1435   -0.4031    0.0000 C   0  0  0  0  0  0  0  0  0  0  0  0
    0.1273    0.4218    0.0000 C   0  0  0  0  0  0  0  0  0  0  0  0
    0.8335    0.8483    0.0000 C   0  0  0  0  0  0  0  0  0  0  0  0
    1.5559    0.4499    0.0000 C   0  0  0  0  0  0  0  0  0  0  0  0
    1.5722   -0.3749    0.0000 C   0  0  0  0  0  0  0  0  0  0  0  0
    2.3485   -2.4605    0.0000 H   0  0  0  0  0  0  0  0  0  0  0  0
    4.4687   -3.5484    0.0000 H   0  0  0  0  0  0  0  0  0  0  0  0
    0.8985   -2.4511    0.0000 H   0  0  0  0  0  0  0  0  0  0  0  0
    3.9899   -5.1274    0.0000 H   0  0  0  0  0  0  0  0  0  0  0  0
    3.3407   -2.3442    0.0000 H   0  0  0  0  0  0  0  0  0  0  0  0
    0.5921   -5.4497    0.0000 H   0  0  0  0  0  0  0  0  0  0  0  0
   -0.5464   -1.6544    0.0000 H   0  0  0  0  0  0  0  0  0  0  0  0
    2.4272   -1.9604    0.0000 H   0  0  0  0  0  0  0  0  0  0  0  0
    2.0444   -1.3265    0.0000 H   0  0  0  0  0  0  0  0  0  0  0  0
   -0.6790   -0.4673    0.0000 H   0  0  0  0  0  0  0  0  0  0  0  0
   -0.2962   -1.1011    0.0000 H   0  0  0  0  0  0  0  0  0  0  0  0
   -0.3396    1.1020    0.0000 H   0  0  0  0  0  0  0  0  0  0  0  0
   -0.6971    0.4535    0.0000 H   0  0  0  0  0  0  0  0  0  0  0  0
    2.3830   -5.5022    0.0000 H   0  0  0  0  0  0  0  0  0  0  0  0
    2.3528   -0.6417    0.0000 H   0  0  0  0  0  0  0  0  0  0  0  0
    2.3417   -0.0775    0.0000 H   0  0  0  0  0  0  0  0  0  0  0  0
   -0.3596   -2.7059    0.0000 H   0  0  0  0  0  0  0  0  0  0  0  0
    1.5884   -1.1997    0.0000 H   0  0  0  0  0  0  0  0  0  0  0  0
    1.1891    1.5927    0.0000 H   0  0  0  0  0  0  0  0  0  0  0  0
    0.4487    1.5781    0.0000 H   0  0  0  0  0  0  0  0  0  0  0  0
    2.3784    0.5141    0.0000 H   0  0  0  0  0  0  0  0  0  0  0  0
    1.9956    1.1480    0.0000 H   0  0  0  0  0  0  0  0  0  0  0  0
  1  2  1  0  0  0  0
  2  3  1  0  0  0  0
  2 16  1  0  0  0  0
  3  4  1  0  0  0  0
  4  5  1  0  0  0  0
  4 15  1  0  0  0  0
  5  6  4  0  0  0  0
  5 10  4  0  0  0  0
  6  7  4  0  0  0  0
  7  8  4  0  0  0  0
  8  9  4  0  0  0  0
  9 10  4  0  0  0  0
 10 11  1  0  0  0  0
 11 12  4  0  0  0  0
 11 15  4  0  0  0  0
 12 13  4  0  0  0  0
 13 14  4  0  0  0  0
 14 15  4  0  0  0  0
 16 17  1  0  0  0  0
 16 21  1  0  0  0  0
 17 18  1  0  0  0  0
 18 19  1  0  0  0  0
 19 20  1  0  0  0  0
 20 21  1  0  0  0  0
  4 22  1  0  0  0  0
  7 23  1  0  0  0  0
  2 24  1  0  0  0  0
  8 25  1  0  0  0  0
  6 26  1  0  0  0  0
 12 27  1  0  0  0  0
  1 28  1  0  0  0  0
  3 29  1  0  0  0  0
  3 30  1  0  0  0  0
 17 31  1  0  0  0  0
 17 32  1  0  0  0  0
 18 33  1  0  0  0  0
 18 34  1  0  0  0  0
  9 35  1  0  0  0  0
 21 36  1  0  0  0  0
 21 37  1  0  0  0  0
 14 38  1  0  0  0  0
 16 39  1  0  0  0  0
 19 40  1  0  0  0  0
 19 41  1  0  0  0  0
 20 42  1  0  0  0  0
 20 43  1  0  0  0  0
M  END
> <Molecule ChEMBL ID>
CHEMBL3629569

> <Class(50)>
0

> <Class(80)>
0

>  <salt>
false

>  <StandardizerResult>
Tautomerize (ID: Tautomerize)
Transform (ID: Transform NO2 (1))
Aromatize (ID: Aromatize)
Wedge Clean (ID: Wedge Clean)
Clean 2D (ID: Clean2D)

$$$$
CHEMBL324665
  Mrv2010 08032110442D          

 44 46  0  0  1  0            999 V2000
   -6.3117   -1.2207    0.0000 C   0  0  0  0  0  0  0  0  0  0  0  0
   -5.5973   -0.8082    0.0000 C   0  0  0  0  0  0  0  0  0  0  0  0
   -5.5973    0.0168    0.0000 C   0  0  0  0  0  0  0  0  0  0  0  0
   -4.8828   -1.2207    0.0000 N   0  0  0  0  0  0  0  0  0  0  0  0
   -4.1683   -0.8082    0.0000 C   0  0  0  0  0  0  0  0  0  0  0  0
   -3.4538   -1.2207    0.0000 C   0  0  0  0  0  0  0  0  0  0  0  0
   -3.4538   -2.0457    0.0000 O   0  0  0  0  0  0  0  0  0  0  0  0
   -2.7394   -0.8082    0.0000 C   0  0  0  0  0  0  0  0  0  0  0  0
   -2.0249   -1.2207    0.0000 O   0  0  0  0  0  0  0  0  0  0  0  0
   -1.3104   -0.8082    0.0000 C   0  0  0  0  0  0  0  0  0  0  0  0
   -1.3104    0.0168    0.0000 C   0  0  0  0  0  0  0  0  0  0  0  0
   -0.5960    0.4293    0.0000 C   0  0  0  0  0  0  0  0  0  0  0  0
    0.1185    0.0168    0.0000 C   0  0  0  0  0  0  0  0  0  0  0  0
    0.1185   -0.8082    0.0000 C   0  0  0  0  0  0  0  0  0  0  0  0
    0.7316   -1.3603    0.0000 N   0  0  0  0  0  0  0  0  0  0  0  0
    0.3960   -2.1139    0.0000 C   0  0  0  0  0  0  0  0  0  0  0  0
    0.7316   -2.8676    0.0000 C   0  0  0  0  0  0  0  0  0  0  0  0
    0.2467   -3.5351    0.0000 C   0  0  0  0  0  0  0  0  0  0  0  0
   -0.5738   -3.4488    0.0000 C   0  0  0  0  0  0  0  0  0  0  0  0
   -0.9094   -2.6951    0.0000 C   0  0  0  0  0  0  0  0  0  0  0  0
   -0.4244   -2.0277    0.0000 C   0  0  0  0  0  0  0  0  0  0  0  0
   -0.5960   -1.2207    0.0000 C   0  0  0  0  0  0  0  0  0  0  0  0
   -0.5960    1.2543    0.0000 H   0  0  0  0  0  0  0  0  0  0  0  0
   -1.0587   -4.1163    0.0000 H   0  0  0  0  0  0  0  0  0  0  0  0
   -4.8828   -2.0457    0.0000 H   0  0  0  0  0  0  0  0  0  0  0  0
   -2.7394   -1.6332    0.0000 H   0  0  0  0  0  0  0  0  0  0  0  0
   -2.0249    0.4293    0.0000 H   0  0  0  0  0  0  0  0  0  0  0  0
   -3.6715   -0.1496    0.0000 H   0  0  0  0  0  0  0  0  0  0  0  0
   -4.1683   -1.6332    0.0000 H   0  0  0  0  0  0  0  0  0  0  0  0
   -2.3691   -0.0710    0.0000 H   0  0  0  0  0  0  0  0  0  0  0  0
   -3.1096   -0.0710    0.0000 H   0  0  0  0  0  0  0  0  0  0  0  0
    1.5386   -1.1887    0.0000 H   0  0  0  0  0  0  0  0  0  0  0  0
   -4.8004   -0.1968    0.0000 H   0  0  0  0  0  0  0  0  0  0  0  0
   -5.1848    0.7312    0.0000 H   0  0  0  0  0  0  0  0  0  0  0  0
   -6.1806    0.6001    0.0000 H   0  0  0  0  0  0  0  0  0  0  0  0
   -1.7298   -2.6089    0.0000 H   0  0  0  0  0  0  0  0  0  0  0  0
    1.5521   -2.9538    0.0000 H   0  0  0  0  0  0  0  0  0  0  0  0
   -6.3117   -0.3957    0.0000 H   0  0  0  0  0  0  0  0  0  0  0  0
    0.5822   -4.2887    0.0000 H   0  0  0  0  0  0  0  0  0  0  0  0
   -6.7242   -0.5063    0.0000 H   0  0  0  0  0  0  0  0  0  0  0  0
   -7.0262   -1.6332    0.0000 H   0  0  0  0  0  0  0  0  0  0  0  0
   -5.8992   -1.9352    0.0000 H   0  0  0  0  0  0  0  0  0  0  0  0
   -3.4538   -2.8707    0.0000 H   0  0  0  0  0  0  0  0  0  0  0  0
    0.8330    0.4293    0.0000 H   0  0  0  0  0  0  0  0  0  0  0  0
  1  2  1  0  0  0  0
  2  3  1  0  0  0  0
  2  4  1  0  0  0  0
  4  5  1  0  0  0  0
  5  6  1  0  0  0  0
  6  7  1  0  0  0  0
  6  8  1  0  0  0  0
  8  9  1  0  0  0  0
  9 10  1  0  0  0  0
 10 11  4  0  0  0  0
 10 22  4  0  0  0  0
 11 12  4  0  0  0  0
 12 13  4  0  0  0  0
 13 14  4  0  0  0  0
 14 15  4  0  0  0  0
 14 22  4  0  0  0  0
 15 16  4  0  0  0  0
 16 17  4  0  0  0  0
 16 21  4  0  0  0  0
 17 18  4  0  0  0  0
 18 19  4  0  0  0  0
 19 20  4  0  0  0  0
 20 21  4  0  0  0  0
 21 22  4  0  0  0  0
 12 23  1  0  0  0  0
 19 24  1  0  0  0  0
  4 25  1  0  0  0  0
  6 26  1  0  0  0  0
 11 27  1  0  0  0  0
  5 28  1  0  0  0  0
  5 29  1  0  0  0  0
  8 30  1  0  0  0  0
  8 31  1  0  0  0  0
 15 32  1  0  0  0  0
  3 33  1  0  0  0  0
  3 34  1  0  0  0  0
  3 35  1  0  0  0  0
 20 36  1  0  0  0  0
 17 37  1  0  0  0  0
  2 38  1  0  0  0  0
 18 39  1  0  0  0  0
  1 40  1  0  0  0  0
  1 41  1  0  0  0  0
  1 42  1  0  0  0  0
  7 43  1  0  0  0  0
 13 44  1  0  0  0  0
M  END
> <Molecule ChEMBL ID>
CHEMBL324665

> <Class(50)>
0

> <Class(80)>
0

>  <salt>
false

>  <StandardizerResult>
Tautomerize (ID: Tautomerize)
Transform (ID: Transform NO2 (1))
Aromatize (ID: Aromatize)
Wedge Clean (ID: Wedge Clean)
Clean 2D (ID: Clean2D)

$$$$
CHEMBL2335154
  Mrv2010 08032110442D          

 39 41  0  0  1  0            999 V2000
    1.0396   -0.0044    0.0000 C   0  0  0  0  0  0  0  0  0  0  0  0
    1.0396   -0.8294    0.0000 C   0  0  0  0  0  0  0  0  0  0  0  0
    1.7071   -1.3143    0.0000 N   0  0  0  0  0  0  0  0  0  0  0  0
    1.4521   -2.0989    0.0000 O   0  0  0  0  0  0  0  0  0  0  0  0
    0.6271   -2.0989    0.0000 C   0  0  0  0  0  0  0  0  0  0  0  0
    0.1422   -2.7664    0.0000 C   0  0  0  0  0  0  0  0  0  0  0  0
    0.3722   -1.3143    0.0000 C   0  0  0  0  0  0  0  0  0  0  0  0
   -0.4124   -1.0594    0.0000 C   0  0  0  0  0  0  0  0  0  0  0  0
   -1.0255   -1.6114    0.0000 C   0  0  0  0  0  0  0  0  0  0  0  0
   -1.8101   -1.3565    0.0000 C   0  0  0  0  0  0  0  0  0  0  0  0
   -2.4232   -1.9085    0.0000 O   0  0  0  0  0  0  0  0  0  0  0  0
   -1.9817   -0.5495    0.0000 C   0  0  0  0  0  0  0  0  0  0  0  0
   -1.3686    0.0025    0.0000 C   0  0  0  0  0  0  0  0  0  0  0  0
   -1.5401    0.8095    0.0000 C   0  0  1  0  0  0  0  0  0  0  0  0
   -2.3247    1.0644    0.0000 O   0  0  0  0  0  0  0  0  0  0  0  0
   -0.9270    1.3615    0.0000 C   0  0  0  0  0  0  0  0  0  0  0  0
   -1.0985    2.1685    0.0000 C   0  0  0  0  0  0  0  0  0  0  0  0
   -0.4854    2.7205    0.0000 C   0  0  0  0  0  0  0  0  0  0  0  0
    0.2992    2.4656    0.0000 C   0  0  0  0  0  0  0  0  0  0  0  0
    0.4707    1.6586    0.0000 C   0  0  0  0  0  0  0  0  0  0  0  0
   -0.1424    1.1066    0.0000 C   0  0  0  0  0  0  0  0  0  0  0  0
   -0.5839   -0.2524    0.0000 C   0  0  0  0  0  0  0  0  0  0  0  0
   -2.8767    1.6775    0.0000 H   0  0  0  0  0  0  0  0  0  0  0  0
   -2.1532    0.2575    0.0000 H   0  0  0  0  0  0  0  0  0  0  0  0
   -0.5252   -2.2815    0.0000 H   0  0  0  0  0  0  0  0  0  0  0  0
   -0.3427   -3.4338    0.0000 H   0  0  0  0  0  0  0  0  0  0  0  0
    0.8097   -3.2513    0.0000 H   0  0  0  0  0  0  0  0  0  0  0  0
   -2.7663   -0.2946    0.0000 H   0  0  0  0  0  0  0  0  0  0  0  0
    1.2553    1.4037    0.0000 H   0  0  0  0  0  0  0  0  0  0  0  0
   -1.1970   -0.8044    0.0000 H   0  0  0  0  0  0  0  0  0  0  0  0
    0.9123    3.0176    0.0000 H   0  0  0  0  0  0  0  0  0  0  0  0
   -0.6570    3.5275    0.0000 H   0  0  0  0  0  0  0  0  0  0  0  0
   -3.2078   -1.6536    0.0000 H   0  0  0  0  0  0  0  0  0  0  0  0
    1.8646   -0.0044    0.0000 H   0  0  0  0  0  0  0  0  0  0  0  0
    1.0396    0.8206    0.0000 H   0  0  0  0  0  0  0  0  0  0  0  0
    0.2146   -0.0044    0.0000 H   0  0  0  0  0  0  0  0  0  0  0  0
   -1.8831    2.4234    0.0000 H   0  0  0  0  0  0  0  0  0  0  0  0
   -1.5061   -2.2820    0.0000 H   0  0  0  0  0  0  0  0  0  0  0  0
    0.0292    0.2996    0.0000 H   0  0  0  0  0  0  0  0  0  0  0  0
  1  2  1  0  0  0  0
  2  3  4  0  0  0  0
  2  7  4  0  0  0  0
  3  4  4  0  0  0  0
  4  5  4  0  0  0  0
  5  6  1  0  0  0  0
  5  7  4  0  0  0  0
  7  8  1  0  0  0  0
  8  9  4  0  0  0  0
  8 22  4  0  0  0  0
  9 10  4  0  0  0  0
 10 11  1  0  0  0  0
 10 12  4  0  0  0  0
 12 13  4  0  0  0  0
 14 13  1  0  0  0  0
 13 22  4  0  0  0  0
 14 15  1  0  0  0  0
 14 16  1  0  0  0  0
 16 17  4  0  0  0  0
 16 21  4  0  0  0  0
 17 18  4  0  0  0  0
 18 19  4  0  0  0  0
 19 20  4  0  0  0  0
 20 21  4  0  0  0  0
 15 23  1  0  0  0  0
 14 24  1  6  0  0  0
  6 25  1  0  0  0  0
  6 26  1  0  0  0  0
  6 27  1  0  0  0  0
 12 28  1  0  0  0  0
 20 29  1  0  0  0  0
 22 30  1  0  0  0  0
 19 31  1  0  0  0  0
 18 32  1  0  0  0  0
 11 33  1  0  0  0  0
  1 34  1  0  0  0  0
  1 35  1  0  0  0  0
  1 36  1  0  0  0  0
 17 37  1  0  0  0  0
  9 38  1  0  0  0  0
 21 39  1  0  0  0  0
M  END
> <Molecule ChEMBL ID>
CHEMBL2335154

> <Class(50)>
0

> <Class(80)>
0

>  <salt>
false

>  <StandardizerResult>
Tautomerize (ID: Tautomerize)
Transform (ID: Transform NO2 (1))
Aromatize (ID: Aromatize)
Wedge Clean (ID: Wedge Clean)
Clean 2D (ID: Clean2D)

$$$$
CHEMBL396778
  Mrv2010 08032110442D          

 41 42  0  0  1  0            999 V2000
    2.9518    1.7623    0.0000 C   0  0  0  0  0  0  0  0  0  0  0  0
    2.9518    0.9373    0.0000 C   0  0  1  0  0  0  0  0  0  0  0  0
    2.2374    0.5248    0.0000 N   0  0  0  0  0  0  0  0  0  0  0  0
    1.5229    0.9373    0.0000 C   0  0  0  0  0  0  0  0  0  0  0  0
    0.8084    0.5248    0.0000 C   0  0  0  0  0  0  0  0  0  0  0  0
    0.8084   -0.3002    0.0000 C   0  0  0  0  0  0  0  0  0  0  0  0
    0.0939   -0.7127    0.0000 C   0  0  0  0  0  0  0  0  0  0  0  0
   -0.6205   -0.3002    0.0000 C   0  0  0  0  0  0  0  0  0  0  0  0
   -1.3350   -0.7127    0.0000 O   0  0  0  0  0  0  0  0  0  0  0  0
   -2.0495   -0.3002    0.0000 C   0  0  0  0  0  0  0  0  0  0  0  0
   -2.7639   -0.7127    0.0000 C   0  0  0  0  0  0  0  0  0  0  0  0
   -2.7639   -1.5377    0.0000 C   0  0  0  0  0  0  0  0  0  0  0  0
   -3.4784   -1.9502    0.0000 C   0  0  0  0  0  0  0  0  0  0  0  0
   -4.1929   -1.5377    0.0000 C   0  0  0  0  0  0  0  0  0  0  0  0
   -4.1929   -0.7127    0.0000 C   0  0  0  0  0  0  0  0  0  0  0  0
   -4.9074   -0.3002    0.0000 F   0  0  0  0  0  0  0  0  0  0  0  0
   -3.4784   -0.3002    0.0000 C   0  0  0  0  0  0  0  0  0  0  0  0
   -0.6205    0.5248    0.0000 C   0  0  0  0  0  0  0  0  0  0  0  0
    0.0939    0.9373    0.0000 C   0  0  0  0  0  0  0  0  0  0  0  0
    3.6663    0.5248    0.0000 C   0  0  0  0  0  0  0  0  0  0  0  0
    4.3808    0.9373    0.0000 O   0  0  0  0  0  0  0  0  0  0  0  0
    3.6663   -0.3002    0.0000 N   0  0  0  0  0  0  0  0  0  0  0  0
    0.0939   -1.5377    0.0000 H   0  0  0  0  0  0  0  0  0  0  0  0
    2.9518   -0.7127    0.0000 H   0  0  0  0  0  0  0  0  0  0  0  0
    4.3808   -0.7127    0.0000 H   0  0  0  0  0  0  0  0  0  0  0  0
    3.7768    1.7623    0.0000 H   0  0  0  0  0  0  0  0  0  0  0  0
    2.9518    2.5873    0.0000 H   0  0  0  0  0  0  0  0  0  0  0  0
    2.1268    1.7623    0.0000 H   0  0  0  0  0  0  0  0  0  0  0  0
    2.2374   -0.3002    0.0000 H   0  0  0  0  0  0  0  0  0  0  0  0
   -4.9074   -1.9502    0.0000 H   0  0  0  0  0  0  0  0  0  0  0  0
   -1.3350    0.9373    0.0000 H   0  0  0  0  0  0  0  0  0  0  0  0
   -2.0495   -1.9502    0.0000 H   0  0  0  0  0  0  0  0  0  0  0  0
   -3.4784   -2.7752    0.0000 H   0  0  0  0  0  0  0  0  0  0  0  0
    2.2374    1.3498    0.0000 H   0  0  0  0  0  0  0  0  0  0  0  0
    1.5229   -0.7127    0.0000 H   0  0  0  0  0  0  0  0  0  0  0  0
   -1.6792    0.4370    0.0000 H   0  0  0  0  0  0  0  0  0  0  0  0
   -2.4197    0.4370    0.0000 H   0  0  0  0  0  0  0  0  0  0  0  0
   -3.4784    0.5248    0.0000 H   0  0  0  0  0  0  0  0  0  0  0  0
   -0.3410    1.6383    0.0000 H   0  0  0  0  0  0  0  0  0  0  0  0
    1.3796    1.7498    0.0000 H   0  0  0  0  0  0  0  0  0  0  0  0
    0.8909    1.4676    0.0000 H   0  0  0  0  0  0  0  0  0  0  0  0
  2  1  1  0  0  0  0
  2  3  1  0  0  0  0
  2 20  1  0  0  0  0
  3  4  1  0  0  0  0
  4  5  1  0  0  0  0
  5  6  4  0  0  0  0
  5 19  4  0  0  0  0
  6  7  4  0  0  0  0
  7  8  4  0  0  0  0
  8  9  1  0  0  0  0
  8 18  4  0  0  0  0
  9 10  1  0  0  0  0
 10 11  1  0  0  0  0
 11 12  4  0  0  0  0
 11 17  4  0  0  0  0
 12 13  4  0  0  0  0
 13 14  4  0  0  0  0
 14 15  4  0  0  0  0
 15 16  1  0  0  0  0
 15 17  4  0  0  0  0
 18 19  4  0  0  0  0
 20 21  2  0  0  0  0
 20 22  1  0  0  0  0
  7 23  1  0  0  0  0
 22 24  1  0  0  0  0
 22 25  1  0  0  0  0
  1 26  1  0  0  0  0
  1 27  1  0  0  0  0
  1 28  1  0  0  0  0
  3 29  1  0  0  0  0
 14 30  1  0  0  0  0
 18 31  1  0  0  0  0
 12 32  1  0  0  0  0
 13 33  1  0  0  0  0
  2 34  1  1  0  0  0
  6 35  1  0  0  0  0
 10 36  1  0  0  0  0
 10 37  1  0  0  0  0
 17 38  1  0  0  0  0
 19 39  1  0  0  0  0
  4 40  1  0  0  0  0
  4 41  1  0  0  0  0
M  END
> <Molecule ChEMBL ID>
CHEMBL396778

> <Class(50)>
0

> <Class(80)>
0

>  <salt>
false

>  <StandardizerResult>
Tautomerize (ID: Tautomerize)
Transform (ID: Transform NO2 (1))
Aromatize (ID: Aromatize)
Wedge Clean (ID: Wedge Clean)
Clean 2D (ID: Clean2D)

$$$$
CHEMBL1070
  Mrv2010 08032110442D          

 33 34  0  0  0  0            999 V2000
   -4.1755   -1.3720    0.0000 C   0  0  0  0  0  0  0  0  0  0  0  0
   -4.1755   -0.5470    0.0000 O   0  0  0  0  0  0  0  0  0  0  0  0
   -3.4610   -0.1345    0.0000 C   0  0  0  0  0  0  0  0  0  0  0  0
   -3.4610    0.6905    0.0000 C   0  0  0  0  0  0  0  0  0  0  0  0
   -2.7466    1.1030    0.0000 C   0  0  0  0  0  0  0  0  0  0  0  0
   -2.0321    0.6905    0.0000 C   0  0  0  0  0  0  0  0  0  0  0  0
   -1.3176    1.1030    0.0000 C   0  0  0  0  0  0  0  0  0  0  0  0
   -0.6032    0.6905    0.0000 C   0  0  0  0  0  0  0  0  0  0  0  0
    0.1113    1.1030    0.0000 C   0  0  0  0  0  0  0  0  0  0  0  0
    0.1113    1.9280    0.0000 C   0  0  0  0  0  0  0  0  0  0  0  0
    0.8258    2.3405    0.0000 C   0  0  0  0  0  0  0  0  0  0  0  0
    0.8258    3.1655    0.0000 O   0  0  0  0  0  0  0  0  0  0  0  0
    1.5402    1.9280    0.0000 C   0  0  0  0  0  0  0  0  0  0  0  0
   -0.6032   -0.1345    0.0000 C   0  0  0  0  0  0  0  0  0  0  0  0
   -1.3176   -0.5470    0.0000 C   0  0  0  0  0  0  0  0  0  0  0  0
   -2.0321   -0.1345    0.0000 C   0  0  0  0  0  0  0  0  0  0  0  0
   -2.7466   -0.5470    0.0000 C   0  0  0  0  0  0  0  0  0  0  0  0
    0.1113   -0.5470    0.0000 H   0  0  0  0  0  0  0  0  0  0  0  0
    0.5647    0.4137    0.0000 H   0  0  0  0  0  0  0  0  0  0  0  0
    0.9349    1.0550    0.0000 H   0  0  0  0  0  0  0  0  0  0  0  0
   -0.3420    2.6172    0.0000 H   0  0  0  0  0  0  0  0  0  0  0  0
   -0.7123    1.9759    0.0000 H   0  0  0  0  0  0  0  0  0  0  0  0
   -5.0005   -1.3720    0.0000 H   0  0  0  0  0  0  0  0  0  0  0  0
   -4.1755   -2.1970    0.0000 H   0  0  0  0  0  0  0  0  0  0  0  0
   -3.3505   -1.3720    0.0000 H   0  0  0  0  0  0  0  0  0  0  0  0
   -4.1755    1.1030    0.0000 H   0  0  0  0  0  0  0  0  0  0  0  0
    1.1277    1.2135    0.0000 H   0  0  0  0  0  0  0  0  0  0  0  0
    2.2547    1.5155    0.0000 H   0  0  0  0  0  0  0  0  0  0  0  0
    1.9527    2.6424    0.0000 H   0  0  0  0  0  0  0  0  0  0  0  0
   -1.3176    1.9280    0.0000 H   0  0  0  0  0  0  0  0  0  0  0  0
   -2.7466    1.9280    0.0000 H   0  0  0  0  0  0  0  0  0  0  0  0
   -1.3176   -1.3720    0.0000 H   0  0  0  0  0  0  0  0  0  0  0  0
   -2.7466   -1.3720    0.0000 H   0  0  0  0  0  0  0  0  0  0  0  0
  1  2  1  0  0  0  0
  2  3  1  0  0  0  0
  3  4  4  0  0  0  0
  3 17  4  0  0  0  0
  4  5  4  0  0  0  0
  5  6  4  0  0  0  0
  6  7  4  0  0  0  0
  6 16  4  0  0  0  0
  7  8  4  0  0  0  0
  8  9  1  0  0  0  0
  8 14  4  0  0  0  0
  9 10  1  0  0  0  0
 10 11  1  0  0  0  0
 11 12  2  0  0  0  0
 11 13  1  0  0  0  0
 14 15  4  0  0  0  0
 15 16  4  0  0  0  0
 16 17  4  0  0  0  0
 14 18  1  0  0  0  0
  9 19  1  0  0  0  0
  9 20  1  0  0  0  0
 10 21  1  0  0  0  0
 10 22  1  0  0  0  0
  1 23  1  0  0  0  0
  1 24  1  0  0  0  0
  1 25  1  0  0  0  0
  4 26  1  0  0  0  0
 13 27  1  0  0  0  0
 13 28  1  0  0  0  0
 13 29  1  0  0  0  0
  7 30  1  0  0  0  0
  5 31  1  0  0  0  0
 15 32  1  0  0  0  0
 17 33  1  0  0  0  0
M  END
> <Molecule ChEMBL ID>
CHEMBL1070

> <Class(50)>
0

> <Class(80)>
0

>  <salt>
false

>  <StandardizerResult>
Tautomerize (ID: Tautomerize)
Neutralize (ID: Neutralize)
Aromatize (ID: Aromatize)
Wedge Clean (ID: Wedge Clean)
Clean 2D (ID: Clean2D)

$$$$
CHEMBL1297
  Mrv2010 08032110442D          

 32 33  0  0  1  0            999 V2000
    0.8743    2.4635    0.0000 C   0  0  0  0  0  0  0  0  0  0  0  0
    1.5887    2.0510    0.0000 C   0  0  1  0  0  0  0  0  0  0  0  0
    2.3032    2.4635    0.0000 C   0  0  0  0  0  0  0  0  0  0  0  0
    2.3032    3.2885    0.0000 O   0  0  0  0  0  0  0  0  0  0  0  0
    3.0177    2.0510    0.0000 O   0  0  0  0  0  0  0  0  0  0  0  0
    1.5887    1.2260    0.0000 C   0  0  0  0  0  0  0  0  0  0  0  0
    2.3032    0.8135    0.0000 C   0  0  0  0  0  0  0  0  0  0  0  0
    2.3032   -0.0115    0.0000 C   0  0  0  0  0  0  0  0  0  0  0  0
    1.5887   -0.4240    0.0000 C   0  0  0  0  0  0  0  0  0  0  0  0
    0.8743   -0.0115    0.0000 C   0  0  0  0  0  0  0  0  0  0  0  0
    0.1598   -0.4240    0.0000 O   0  0  0  0  0  0  0  0  0  0  0  0
   -0.5547   -0.0115    0.0000 C   0  0  0  0  0  0  0  0  0  0  0  0
   -1.2691   -0.4240    0.0000 C   0  0  0  0  0  0  0  0  0  0  0  0
   -1.9836   -0.0115    0.0000 C   0  0  0  0  0  0  0  0  0  0  0  0
   -1.9836    0.8135    0.0000 C   0  0  0  0  0  0  0  0  0  0  0  0
   -1.2691    1.2260    0.0000 C   0  0  0  0  0  0  0  0  0  0  0  0
   -0.5547    0.8135    0.0000 C   0  0  0  0  0  0  0  0  0  0  0  0
    0.8743    0.8135    0.0000 C   0  0  0  0  0  0  0  0  0  0  0  0
   -1.2691   -1.2490    0.0000 H   0  0  0  0  0  0  0  0  0  0  0  0
    1.5887   -1.2490    0.0000 H   0  0  0  0  0  0  0  0  0  0  0  0
    1.5887    2.8760    0.0000 H   0  0  0  0  0  0  0  0  0  0  0  0
   -2.6981   -0.4240    0.0000 H   0  0  0  0  0  0  0  0  0  0  0  0
    3.0177   -0.4240    0.0000 H   0  0  0  0  0  0  0  0  0  0  0  0
    1.2868    3.1780    0.0000 H   0  0  0  0  0  0  0  0  0  0  0  0
    0.1598    2.8760    0.0000 H   0  0  0  0  0  0  0  0  0  0  0  0
    0.4618    1.7491    0.0000 H   0  0  0  0  0  0  0  0  0  0  0  0
    3.0177    1.2260    0.0000 H   0  0  0  0  0  0  0  0  0  0  0  0
   -1.2691    2.0510    0.0000 H   0  0  0  0  0  0  0  0  0  0  0  0
    0.1598    1.2260    0.0000 H   0  0  0  0  0  0  0  0  0  0  0  0
    0.8743    1.6385    0.0000 H   0  0  0  0  0  0  0  0  0  0  0  0
   -2.6981    1.2260    0.0000 H   0  0  0  0  0  0  0  0  0  0  0  0
    2.3032    1.6385    0.0000 H   0  0  0  0  0  0  0  0  0  0  0  0
  2  1  1  0  0  0  0
  2  3  1  0  0  0  0
  2  6  1  0  0  0  0
  3  4  2  0  0  0  0
  3  5  1  0  0  0  0
  6  7  4  0  0  0  0
  6 18  4  0  0  0  0
  7  8  4  0  0  0  0
  8  9  4  0  0  0  0
  9 10  4  0  0  0  0
 10 11  1  0  0  0  0
 10 18  4  0  0  0  0
 11 12  1  0  0  0  0
 12 13  4  0  0  0  0
 12 17  4  0  0  0  0
 13 14  4  0  0  0  0
 14 15  4  0  0  0  0
 15 16  4  0  0  0  0
 16 17  4  0  0  0  0
 13 19  1  0  0  0  0
  9 20  1  0  0  0  0
  2 21  1  6  0  0  0
 14 22  1  0  0  0  0
  8 23  1  0  0  0  0
  1 24  1  0  0  0  0
  1 25  1  0  0  0  0
  1 26  1  0  0  0  0
  5 27  1  0  0  0  0
 16 28  1  0  0  0  0
 17 29  1  0  0  0  0
 18 30  1  0  0  0  0
 15 31  1  0  0  0  0
  7 32  1  0  0  0  0
M  END
> <Molecule ChEMBL ID>
CHEMBL1297

> <Class(50)>
0

> <Class(80)>
0

>  <salt>
false

>  <StandardizerResult>
Tautomerize (ID: Tautomerize)
Transform (ID: Transform NO2 (1))
Aromatize (ID: Aromatize)
Wedge Clean (ID: Wedge Clean)
Clean 2D (ID: Clean2D)

$$$$
CHEMBL67
  Mrv2010 08032110442D          

 43 44  0  0  0  0            999 V2000
    0.4100    4.0265    0.0000 C   0  0  0  0  0  0  0  0  0  0  0  0
    1.1245    3.6140    0.0000 O   0  0  0  0  0  0  0  0  0  0  0  0
    1.1245    2.7890    0.0000 C   0  0  0  0  0  0  0  0  0  0  0  0
    0.4100    2.3765    0.0000 C   0  0  0  0  0  0  0  0  0  0  0  0
    0.4100    1.5515    0.0000 C   0  0  0  0  0  0  0  0  0  0  0  0
    1.1245    1.1390    0.0000 C   0  0  0  0  0  0  0  0  0  0  0  0
    1.1245    0.3140    0.0000 C   0  0  0  0  0  0  0  0  0  0  0  0
    0.4100   -0.0985    0.0000 C   0  0  0  0  0  0  0  0  0  0  0  0
   -0.3044    0.3140    0.0000 C   0  0  0  0  0  0  0  0  0  0  0  0
   -1.0189   -0.0985    0.0000 C   0  0  0  0  0  0  0  0  0  0  0  0
   -1.7334    0.3140    0.0000 C   0  0  0  0  0  0  0  0  0  0  0  0
   -2.4478   -0.0985    0.0000 O   0  0  0  0  0  0  0  0  0  0  0  0
   -3.1623    0.3140    0.0000 C   0  0  0  0  0  0  0  0  0  0  0  0
   -1.7334    1.1390    0.0000 C   0  0  0  0  0  0  0  0  0  0  0  0
   -2.4478    1.5515    0.0000 O   0  0  0  0  0  0  0  0  0  0  0  0
   -3.1623    1.1390    0.0000 C   0  0  0  0  0  0  0  0  0  0  0  0
   -1.0189    1.5515    0.0000 C   0  0  0  0  0  0  0  0  0  0  0  0
   -1.0189    2.3765    0.0000 O   0  0  0  0  0  0  0  0  0  0  0  0
   -0.3044    2.7890    0.0000 C   0  0  0  0  0  0  0  0  0  0  0  0
   -0.3044    1.1390    0.0000 C   0  0  0  0  0  0  0  0  0  0  0  0
    1.8390    1.5515    0.0000 C   0  0  0  0  0  0  0  0  0  0  0  0
    1.8390    2.3765    0.0000 C   0  0  0  0  0  0  0  0  0  0  0  0
    2.5534    2.7890    0.0000 O   0  0  0  0  0  0  0  0  0  0  0  0
   -1.0189    0.7265    0.0000 H   0  0  0  0  0  0  0  0  0  0  0  0
    1.8390   -0.0985    0.0000 H   0  0  0  0  0  0  0  0  0  0  0  0
    0.4100    0.7265    0.0000 H   0  0  0  0  0  0  0  0  0  0  0  0
    0.4100   -0.9235    0.0000 H   0  0  0  0  0  0  0  0  0  0  0  0
   -3.3056    1.9514    0.0000 H   0  0  0  0  0  0  0  0  0  0  0  0
   -3.7943    1.6693    0.0000 H   0  0  0  0  0  0  0  0  0  0  0  0
   -2.4478    0.7265    0.0000 H   0  0  0  0  0  0  0  0  0  0  0  0
   -0.5866    3.5642    0.0000 H   0  0  0  0  0  0  0  0  0  0  0  0
   -1.0797    3.0711    0.0000 H   0  0  0  0  0  0  0  0  0  0  0  0
   -0.3044    1.9640    0.0000 H   0  0  0  0  0  0  0  0  0  0  0  0
    0.4100    3.2015    0.0000 H   0  0  0  0  0  0  0  0  0  0  0  0
    0.8225    4.7409    0.0000 H   0  0  0  0  0  0  0  0  0  0  0  0
   -0.3044    4.4390    0.0000 H   0  0  0  0  0  0  0  0  0  0  0  0
   -0.0025    3.3120    0.0000 H   0  0  0  0  0  0  0  0  0  0  0  0
    2.5534    1.1390    0.0000 H   0  0  0  0  0  0  0  0  0  0  0  0
    3.2679    2.3765    0.0000 H   0  0  0  0  0  0  0  0  0  0  0  0
   -1.0189   -0.9235    0.0000 H   0  0  0  0  0  0  0  0  0  0  0  0
   -3.8768    0.7265    0.0000 H   0  0  0  0  0  0  0  0  0  0  0  0
   -3.8768   -0.0985    0.0000 H   0  0  0  0  0  0  0  0  0  0  0  0
   -3.1623   -0.5110    0.0000 H   0  0  0  0  0  0  0  0  0  0  0  0
  1  2  1  0  0  0  0
  2  3  1  0  0  0  0
  3  4  4  0  0  0  0
  3 22  4  0  0  0  0
  4  5  4  0  0  0  0
  5  6  4  0  0  0  0
  6  7  1  0  0  0  0
  6 21  4  0  0  0  0
  7  8  2  0  0  0  0
  8  9  1  0  0  0  0
  9 10  4  0  0  0  0
  9 20  4  0  0  0  0
 10 11  4  0  0  0  0
 11 12  1  0  0  0  0
 11 14  4  0  0  0  0
 12 13  1  0  0  0  0
 14 15  1  0  0  0  0
 14 17  4  0  0  0  0
 15 16  1  0  0  0  0
 17 18  1  0  0  0  0
 17 20  4  0  0  0  0
 18 19  1  0  0  0  0
 21 22  4  0  0  0  0
 22 23  1  0  0  0  0
 20 24  1  0  0  0  0
  7 25  1  0  0  0  0
  5 26  1  0  0  0  0
  8 27  1  0  0  0  0
 16 28  1  0  0  0  0
 16 29  1  0  0  0  0
 16 30  1  0  0  0  0
 19 31  1  0  0  0  0
 19 32  1  0  0  0  0
 19 33  1  0  0  0  0
  4 34  1  0  0  0  0
  1 35  1  0  0  0  0
  1 36  1  0  0  0  0
  1 37  1  0  0  0  0
 21 38  1  0  0  0  0
 23 39  1  0  0  0  0
 10 40  1  0  0  0  0
 13 41  1  0  0  0  0
 13 42  1  0  0  0  0
 13 43  1  0  0  0  0
M  END
> <Molecule ChEMBL ID>
CHEMBL67

> <Class(50)>
0

> <Class(80)>
0

>  <salt>
false

>  <StandardizerResult>
Tautomerize (ID: Tautomerize)
Neutralize (ID: Neutralize)
Aromatize (ID: Aromatize)
Wedge Clean (ID: Wedge Clean)
Clean 2D (ID: Clean2D)

$$$$
CHEMBL177611
  Mrv2010 08032110442D          

 35 37  0  0  1  0            999 V2000
   -1.0430   -0.7956    0.0000 O   0  0  0  0  0  0  0  0  0  0  0  0
   -1.7574   -0.3831    0.0000 C   0  0  0  0  0  0  0  0  0  0  0  0
   -1.7574    0.4419    0.0000 N   0  0  0  0  0  0  0  0  0  0  0  0
   -1.0430    0.8544    0.0000 C   0  0  0  0  0  0  0  0  0  0  0  0
   -1.0430    1.6794    0.0000 C   0  0  0  0  0  0  0  0  0  0  0  0
   -0.3285    2.0919    0.0000 N   0  0  0  0  0  0  0  0  0  0  0  0
    0.3860    1.6794    0.0000 C   0  0  0  0  0  0  0  0  0  0  0  0
    0.3860    0.8544    0.0000 C   0  0  0  0  0  0  0  0  0  0  0  0
   -0.3285    0.4419    0.0000 C   0  0  0  0  0  0  0  0  0  0  0  0
   -0.1910    0.9919    0.0000 C   0  0  0  0  0  0  0  0  0  0  0  0
   -0.1910    1.5419    0.0000 C   0  0  0  0  0  0  0  0  0  0  0  0
   -2.4719   -0.7956    0.0000 C   0  0  0  0  0  0  0  0  0  0  0  0
   -2.4719   -1.6206    0.0000 C   0  0  0  0  0  0  0  0  0  0  0  0
   -3.1864   -2.0331    0.0000 C   0  0  0  0  0  0  0  0  0  0  0  0
   -3.9009   -1.6206    0.0000 C   0  0  0  0  0  0  0  0  0  0  0  0
   -4.6153   -2.0331    0.0000 Cl  0  0  0  0  0  0  0  0  0  0  0  0
   -3.9009   -0.7956    0.0000 C   0  0  0  0  0  0  0  0  0  0  0  0
   -3.1864   -0.3831    0.0000 C   0  0  0  0  0  0  0  0  0  0  0  0
   -0.6410    1.6833    0.0000 H   0  0  0  0  0  0  0  0  0  0  0  0
   -0.9453    1.3260    0.0000 H   0  0  0  0  0  0  0  0  0  0  0  0
    0.0912    0.7666    0.0000 H   0  0  0  0  0  0  0  0  0  0  0  0
   -0.8561    1.0538    0.0000 H   0  0  0  0  0  0  0  0  0  0  0  0
    0.0840   -0.2726    0.0000 H   0  0  0  0  0  0  0  0  0  0  0  0
   -3.1864    0.4419    0.0000 H   0  0  0  0  0  0  0  0  0  0  0  0
   -2.4719    0.8544    0.0000 H   0  0  0  0  0  0  0  0  0  0  0  0
    0.8393    0.1651    0.0000 H   0  0  0  0  0  0  0  0  0  0  0  0
    1.2096    0.8064    0.0000 H   0  0  0  0  0  0  0  0  0  0  0  0
   -3.1864   -2.8581    0.0000 H   0  0  0  0  0  0  0  0  0  0  0  0
   -4.6153   -0.3831    0.0000 H   0  0  0  0  0  0  0  0  0  0  0  0
    1.2096    1.7273    0.0000 H   0  0  0  0  0  0  0  0  0  0  0  0
    0.8393    2.3687    0.0000 H   0  0  0  0  0  0  0  0  0  0  0  0
   -1.0430    0.0294    0.0000 H   0  0  0  0  0  0  0  0  0  0  0  0
   -1.7574   -2.0331    0.0000 H   0  0  0  0  0  0  0  0  0  0  0  0
   -1.4963    2.3687    0.0000 H   0  0  0  0  0  0  0  0  0  0  0  0
   -1.8666    1.7273    0.0000 H   0  0  0  0  0  0  0  0  0  0  0  0
  1  2  2  0  0  0  0
  2  3  1  0  0  0  0
  2 12  1  0  0  0  0
  3  4  1  0  0  0  0
  4  5  1  0  0  0  0
  4  9  1  0  0  0  0
  5  6  1  0  0  0  0
  6  7  1  0  0  0  0
  6 11  1  0  0  0  0
  7  8  1  0  0  0  0
  8  9  1  0  0  0  0
  9 10  1  0  0  0  0
 10 11  1  0  0  0  0
 12 13  4  0  0  0  0
 12 18  4  0  0  0  0
 13 14  4  0  0  0  0
 14 15  4  0  0  0  0
 15 16  1  0  0  0  0
 15 17  4  0  0  0  0
 17 18  4  0  0  0  0
 10 19  1  0  0  0  0
 10 20  1  0  0  0  0
 11 21  1  0  0  0  0
 11 22  1  0  0  0  0
  9 23  1  0  0  0  0
 18 24  1  0  0  0  0
  3 25  1  0  0  0  0
  8 26  1  0  0  0  0
  8 27  1  0  0  0  0
 14 28  1  0  0  0  0
 17 29  1  0  0  0  0
  7 30  1  0  0  0  0
  7 31  1  0  0  0  0
  4 32  1  0  0  0  0
 13 33  1  0  0  0  0
  5 34  1  0  0  0  0
  5 35  1  0  0  0  0
M  END
> <Molecule ChEMBL ID>
CHEMBL177611

> <Class(50)>
0

> <Class(80)>
0

>  <salt>
false

>  <StandardizerResult>
Tautomerize (ID: Tautomerize)
Transform (ID: Transform NO2 (1))
Aromatize (ID: Aromatize)
Wedge Clean (ID: Wedge Clean)
Clean 2D (ID: Clean2D)

$$$$
CHEMBL235658
  Mrv2010 08032110442D          

 46 48  0  0  0  0            999 V2000
    1.6496   -2.0013    0.0000 O   0  0  0  0  0  0  0  0  0  0  0  0
    1.6496   -1.1763    0.0000 C   0  0  0  0  0  0  0  0  0  0  0  0
    0.9351   -0.7638    0.0000 C   0  0  0  0  0  0  0  0  0  0  0  0
    0.2207   -1.1763    0.0000 C   0  0  0  0  0  0  0  0  0  0  0  0
   -0.4938   -0.7638    0.0000 C   0  0  0  0  0  0  0  0  0  0  0  0
   -1.2083   -1.1763    0.0000 C   0  0  0  0  0  0  0  0  0  0  0  0
   -1.2083   -2.0013    0.0000 C   0  0  0  0  0  0  0  0  0  0  0  0
   -1.9227   -2.4138    0.0000 C   0  0  0  0  0  0  0  0  0  0  0  0
   -2.6372   -2.0013    0.0000 C   0  0  0  0  0  0  0  0  0  0  0  0
   -3.3517   -2.4138    0.0000 C   0  0  0  0  0  0  0  0  0  0  0  0
   -3.3517   -3.2388    0.0000 C   0  0  0  0  0  0  0  0  0  0  0  0
   -4.0662   -3.6513    0.0000 C   0  0  0  0  0  0  0  0  0  0  0  0
   -4.7806   -3.2388    0.0000 C   0  0  0  0  0  0  0  0  0  0  0  0
   -4.7806   -2.4138    0.0000 C   0  0  0  0  0  0  0  0  0  0  0  0
   -4.0662   -2.0013    0.0000 C   0  0  0  0  0  0  0  0  0  0  0  0
   -4.0662   -1.1763    0.0000 F   0  0  0  0  0  0  0  0  0  0  0  0
   -2.6372   -1.1763    0.0000 C   0  0  0  0  0  0  0  0  0  0  0  0
   -1.9227   -0.7638    0.0000 C   0  0  0  0  0  0  0  0  0  0  0  0
    2.3641   -0.7638    0.0000 N   0  0  0  0  0  0  0  0  0  0  0  0
    3.0786   -1.1763    0.0000 C   0  0  0  0  0  0  0  0  0  0  0  0
    3.7930   -0.7638    0.0000 C   0  0  0  0  0  0  0  0  0  0  0  0
    4.5075   -1.1763    0.0000 C   0  0  0  0  0  0  0  0  0  0  0  0
    4.5075   -2.0013    0.0000 C   0  0  0  0  0  0  0  0  0  0  0  0
    5.2220   -2.4138    0.0000 O   0  0  0  0  0  0  0  0  0  0  0  0
    3.7930   -2.4138    0.0000 C   0  0  0  0  0  0  0  0  0  0  0  0
    3.0786   -2.0013    0.0000 C   0  0  0  0  0  0  0  0  0  0  0  0
    1.3054   -0.0266    0.0000 H   0  0  0  0  0  0  0  0  0  0  0  0
    0.5649   -0.0266    0.0000 H   0  0  0  0  0  0  0  0  0  0  0  0
    3.7930    0.0612    0.0000 H   0  0  0  0  0  0  0  0  0  0  0  0
    5.2220   -3.2388    0.0000 H   0  0  0  0  0  0  0  0  0  0  0  0
   -0.1235   -0.0266    0.0000 H   0  0  0  0  0  0  0  0  0  0  0  0
   -0.8641   -0.0266    0.0000 H   0  0  0  0  0  0  0  0  0  0  0  0
    2.3641    0.0612    0.0000 H   0  0  0  0  0  0  0  0  0  0  0  0
   -3.3517   -0.7638    0.0000 H   0  0  0  0  0  0  0  0  0  0  0  0
   -0.4938   -2.4138    0.0000 H   0  0  0  0  0  0  0  0  0  0  0  0
   -1.9227    0.0612    0.0000 H   0  0  0  0  0  0  0  0  0  0  0  0
    2.3641   -2.4138    0.0000 H   0  0  0  0  0  0  0  0  0  0  0  0
    3.7930   -3.2388    0.0000 H   0  0  0  0  0  0  0  0  0  0  0  0
   -5.4951   -3.6513    0.0000 H   0  0  0  0  0  0  0  0  0  0  0  0
   -2.6372   -3.6513    0.0000 H   0  0  0  0  0  0  0  0  0  0  0  0
   -1.9227   -3.2388    0.0000 H   0  0  0  0  0  0  0  0  0  0  0  0
    5.2220   -0.7638    0.0000 H   0  0  0  0  0  0  0  0  0  0  0  0
   -4.0662   -4.4763    0.0000 H   0  0  0  0  0  0  0  0  0  0  0  0
   -5.4951   -2.0013    0.0000 H   0  0  0  0  0  0  0  0  0  0  0  0
   -0.1496   -1.9136    0.0000 H   0  0  0  0  0  0  0  0  0  0  0  0
    0.5909   -1.9136    0.0000 H   0  0  0  0  0  0  0  0  0  0  0  0
  1  2  2  0  0  0  0
  2  3  1  0  0  0  0
  2 19  1  0  0  0  0
  3  4  1  0  0  0  0
  4  5  1  0  0  0  0
  5  6  1  0  0  0  0
  6  7  4  0  0  0  0
  6 18  4  0  0  0  0
  7  8  4  0  0  0  0
  8  9  4  0  0  0  0
  9 10  1  0  0  0  0
  9 17  4  0  0  0  0
 10 11  4  0  0  0  0
 10 15  4  0  0  0  0
 11 12  4  0  0  0  0
 12 13  4  0  0  0  0
 13 14  4  0  0  0  0
 14 15  4  0  0  0  0
 15 16  1  0  0  0  0
 17 18  4  0  0  0  0
 19 20  1  0  0  0  0
 20 21  4  0  0  0  0
 20 26  4  0  0  0  0
 21 22  4  0  0  0  0
 22 23  4  0  0  0  0
 23 24  1  0  0  0  0
 23 25  4  0  0  0  0
 25 26  4  0  0  0  0
  3 27  1  0  0  0  0
  3 28  1  0  0  0  0
 21 29  1  0  0  0  0
 24 30  1  0  0  0  0
  5 31  1  0  0  0  0
  5 32  1  0  0  0  0
 19 33  1  0  0  0  0
 17 34  1  0  0  0  0
  7 35  1  0  0  0  0
 18 36  1  0  0  0  0
 26 37  1  0  0  0  0
 25 38  1  0  0  0  0
 13 39  1  0  0  0  0
 11 40  1  0  0  0  0
  8 41  1  0  0  0  0
 22 42  1  0  0  0  0
 12 43  1  0  0  0  0
 14 44  1  0  0  0  0
  4 45  1  0  0  0  0
  4 46  1  0  0  0  0
M  END
> <Molecule ChEMBL ID>
CHEMBL235658

> <Class(50)>
0

> <Class(80)>
0

>  <salt>
false

>  <StandardizerResult>
Tautomerize (ID: Tautomerize)
Neutralize (ID: Neutralize)
Aromatize (ID: Aromatize)
Wedge Clean (ID: Wedge Clean)
Clean 2D (ID: Clean2D)

$$$$
CHEMBL2104682
  Mrv2010 08032110442D          

 31 32  0  0  1  0            999 V2000
    1.3648    0.4055    0.0000 N   0  0  0  0  0  0  0  0  0  0  0  0
    0.6503   -0.0070    0.0000 C   0  0  0  0  0  0  0  0  0  0  0  0
    0.6503   -0.8320    0.0000 C   0  0  0  0  0  0  0  0  0  0  0  0
    1.3178   -1.3169    0.0000 C   0  0  0  0  0  0  0  0  0  0  0  0
    1.0628   -2.1016    0.0000 C   0  0  0  0  0  0  0  0  0  0  0  0
    1.5478   -2.7690    0.0000 O   0  0  0  0  0  0  0  0  0  0  0  0
    0.2378   -2.1016    0.0000 N   0  0  0  0  0  0  0  0  0  0  0  0
   -0.2471   -2.7690    0.0000 C   0  0  0  0  0  0  0  0  0  0  0  0
   -1.0676   -2.6828    0.0000 C   0  0  0  0  0  0  0  0  0  0  0  0
   -1.5525   -3.3502    0.0000 C   0  0  0  0  0  0  0  0  0  0  0  0
   -2.3730   -3.2640    0.0000 C   0  0  0  0  0  0  0  0  0  0  0  0
   -2.7085   -2.5103    0.0000 C   0  0  0  0  0  0  0  0  0  0  0  0
   -2.2236   -1.8429    0.0000 C   0  0  0  0  0  0  0  0  0  0  0  0
   -1.4031   -1.9291    0.0000 C   0  0  0  0  0  0  0  0  0  0  0  0
   -0.0171   -1.3169    0.0000 C   0  0  0  0  0  0  0  0  0  0  0  0
   -2.8579   -3.9314    0.0000 H   0  0  0  0  0  0  0  0  0  0  0  0
   -0.5222   -1.9692    0.0000 H   0  0  0  0  0  0  0  0  0  0  0  0
    0.7675   -1.5719    0.0000 H   0  0  0  0  0  0  0  0  0  0  0  0
   -2.5592   -1.0892    0.0000 H   0  0  0  0  0  0  0  0  0  0  0  0
    2.0793   -0.0070    0.0000 H   0  0  0  0  0  0  0  0  0  0  0  0
    1.3648    1.2305    0.0000 H   0  0  0  0  0  0  0  0  0  0  0  0
   -0.0847   -0.4575    0.0000 H   0  0  0  0  0  0  0  0  0  0  0  0
   -0.9182   -1.2617    0.0000 H   0  0  0  0  0  0  0  0  0  0  0  0
    0.1970    0.6823    0.0000 H   0  0  0  0  0  0  0  0  0  0  0  0
   -0.1733    0.0409    0.0000 H   0  0  0  0  0  0  0  0  0  0  0  0
   -1.2169   -4.1039    0.0000 H   0  0  0  0  0  0  0  0  0  0  0  0
    2.1302   -1.4602    0.0000 H   0  0  0  0  0  0  0  0  0  0  0  0
    1.8909   -0.7235    0.0000 H   0  0  0  0  0  0  0  0  0  0  0  0
   -3.5290   -2.4241    0.0000 H   0  0  0  0  0  0  0  0  0  0  0  0
   -0.2855   -3.5931    0.0000 H   0  0  0  0  0  0  0  0  0  0  0  0
    0.3910   -3.2919    0.0000 H   0  0  0  0  0  0  0  0  0  0  0  0
  1  2  1  0  0  0  0
  2  3  1  0  0  0  0
  3  4  1  0  0  0  0
  3 15  1  0  0  0  0
  4  5  1  0  0  0  0
  5  6  2  0  0  0  0
  5  7  1  0  0  0  0
  7  8  1  0  0  0  0
  7 15  1  0  0  0  0
  8  9  1  0  0  0  0
  9 10  4  0  0  0  0
  9 14  4  0  0  0  0
 10 11  4  0  0  0  0
 11 12  4  0  0  0  0
 12 13  4  0  0  0  0
 13 14  4  0  0  0  0
 11 16  1  0  0  0  0
 15 17  1  0  0  0  0
 15 18  1  0  0  0  0
 13 19  1  0  0  0  0
  1 20  1  0  0  0  0
  1 21  1  0  0  0  0
  3 22  1  0  0  0  0
 14 23  1  0  0  0  0
  2 24  1  0  0  0  0
  2 25  1  0  0  0  0
 10 26  1  0  0  0  0
  4 27  1  0  0  0  0
  4 28  1  0  0  0  0
 12 29  1  0  0  0  0
  8 30  1  0  0  0  0
  8 31  1  0  0  0  0
M  END
> <Molecule ChEMBL ID>
CHEMBL2104682

> <Class(50)>
0

> <Class(80)>
0

>  <salt>
false

>  <StandardizerResult>
Tautomerize (ID: Tautomerize)
Transform (ID: Transform NO2 (1))
Aromatize (ID: Aromatize)
Wedge Clean (ID: Wedge Clean)
Clean 2D (ID: Clean2D)

$$$$
CHEMBL588
  Mrv2010 08032110442D          

 37 39  0  0  1  0            999 V2000
   -0.0169    4.2821    0.0000 O   0  0  0  0  0  0  0  0  0  0  0  0
    0.1667    3.4777    0.0000 C   0  0  0  0  0  0  0  0  0  0  0  0
    0.9550    3.2346    0.0000 C   0  0  0  0  0  0  0  0  0  0  0  0
    1.1386    2.4303    0.0000 C   0  0  0  0  0  0  0  0  0  0  0  0
    0.5338    1.8691    0.0000 C   0  0  0  0  0  0  0  0  0  0  0  0
    0.7174    1.0648    0.0000 C   0  0  0  0  0  0  0  0  0  0  0  0
    1.5217    0.8812    0.0000 C   0  0  0  0  0  0  0  0  0  0  0  0
    1.8797    0.1379    0.0000 N   0  0  0  0  0  0  0  0  0  0  0  0
    1.5217   -0.6054    0.0000 C   0  0  0  0  0  0  0  0  0  0  0  0
    0.7174   -0.7890    0.0000 C   0  0  0  0  0  0  0  0  0  0  0  0
    0.0724   -0.2746    0.0000 C   0  0  0  0  0  0  0  0  0  0  0  0
    0.0724    0.5504    0.0000 C   0  0  0  0  0  0  0  0  0  0  0  0
   -0.6421    0.9629    0.0000 C   0  0  0  0  0  0  0  0  0  0  0  0
   -1.3565    0.5504    0.0000 C   0  0  0  0  0  0  0  0  0  0  0  0
   -2.0710    0.9629    0.0000 O   0  0  0  0  0  0  0  0  0  0  0  0
   -1.3565   -0.2746    0.0000 C   0  0  0  0  0  0  0  0  0  0  0  0
   -2.0710   -0.6871    0.0000 O   0  0  0  0  0  0  0  0  0  0  0  0
   -0.6421   -0.6871    0.0000 C   0  0  0  0  0  0  0  0  0  0  0  0
   -0.6421   -1.5121    0.0000 Cl  0  0  0  0  0  0  0  0  0  0  0  0
   -0.2545    2.1123    0.0000 C   0  0  0  0  0  0  0  0  0  0  0  0
   -0.4381    2.9166    0.0000 C   0  0  0  0  0  0  0  0  0  0  0  0
   -1.0719    1.6671    0.0000 H   0  0  0  0  0  0  0  0  0  0  0  0
    1.7053   -1.4097    0.0000 H   0  0  0  0  0  0  0  0  0  0  0  0
    2.2650   -0.9633    0.0000 H   0  0  0  0  0  0  0  0  0  0  0  0
   -2.7855   -0.2746    0.0000 H   0  0  0  0  0  0  0  0  0  0  0  0
    0.5879    4.8432    0.0000 H   0  0  0  0  0  0  0  0  0  0  0  0
   -0.0613    1.3373    0.0000 H   0  0  0  0  0  0  0  0  0  0  0  0
    1.9269    2.1871    0.0000 H   0  0  0  0  0  0  0  0  0  0  0  0
    2.7047    0.1379    0.0000 H   0  0  0  0  0  0  0  0  0  0  0  0
   -0.9801    3.5386    0.0000 H   0  0  0  0  0  0  0  0  0  0  0  0
   -2.0710    1.7879    0.0000 H   0  0  0  0  0  0  0  0  0  0  0  0
    0.2030   -1.4340    0.0000 H   0  0  0  0  0  0  0  0  0  0  0  0
    0.9010   -1.5933    0.0000 H   0  0  0  0  0  0  0  0  0  0  0  0
    2.2650    1.2392    0.0000 H   0  0  0  0  0  0  0  0  0  0  0  0
    1.7053    1.6855    0.0000 H   0  0  0  0  0  0  0  0  0  0  0  0
   -1.0065    2.4516    0.0000 H   0  0  0  0  0  0  0  0  0  0  0  0
    1.5598    3.7957    0.0000 H   0  0  0  0  0  0  0  0  0  0  0  0
  1  2  1  0  0  0  0
  2  3  4  0  0  0  0
  2 21  4  0  0  0  0
  3  4  4  0  0  0  0
  4  5  4  0  0  0  0
  5  6  1  0  0  0  0
  5 20  4  0  0  0  0
  6  7  1  0  0  0  0
  6 12  1  0  0  0  0
  7  8  1  0  0  0  0
  8  9  1  0  0  0  0
  9 10  1  0  0  0  0
 10 11  1  0  0  0  0
 11 12  4  0  0  0  0
 11 18  4  0  0  0  0
 12 13  4  0  0  0  0
 13 14  4  0  0  0  0
 14 15  1  0  0  0  0
 14 16  4  0  0  0  0
 16 17  1  0  0  0  0
 16 18  4  0  0  0  0
 18 19  1  0  0  0  0
 20 21  4  0  0  0  0
 13 22  1  0  0  0  0
  9 23  1  0  0  0  0
  9 24  1  0  0  0  0
 17 25  1  0  0  0  0
  1 26  1  0  0  0  0
  6 27  1  0  0  0  0
  4 28  1  0  0  0  0
  8 29  1  0  0  0  0
 21 30  1  0  0  0  0
 15 31  1  0  0  0  0
 10 32  1  0  0  0  0
 10 33  1  0  0  0  0
  7 34  1  0  0  0  0
  7 35  1  0  0  0  0
 20 36  1  0  0  0  0
  3 37  1  0  0  0  0
M  END
> <Molecule ChEMBL ID>
CHEMBL588

> <Class(50)>
0

> <Class(80)>
0

>  <salt>
false

>  <StandardizerResult>
Tautomerize (ID: Tautomerize)
Transform (ID: Transform NO2 (1))
Aromatize (ID: Aromatize)
Wedge Clean (ID: Wedge Clean)
Clean 2D (ID: Clean2D)

$$$$
CHEMBL287837
  Mrv2010 08032110442D          

 21 22  0  0  1  0            999 V2000
   -2.3108    0.2859    0.0000 Cl  0  0  0  0  0  0  0  0  0  0  0  0
   -1.5963   -0.1266    0.0000 C   0  0  0  0  0  0  0  0  0  0  0  0
   -1.5963   -0.9516    0.0000 C   0  0  0  0  0  0  0  0  0  0  0  0
   -0.8818   -1.3641    0.0000 C   0  0  0  0  0  0  0  0  0  0  0  0
   -0.1673   -0.9516    0.0000 C   0  0  0  0  0  0  0  0  0  0  0  0
   -0.1673   -0.1266    0.0000 C   0  0  0  0  0  0  0  0  0  0  0  0
   -0.8818    0.2859    0.0000 C   0  0  0  0  0  0  0  0  0  0  0  0
   -0.8818    1.1109    0.0000 Cl  0  0  0  0  0  0  0  0  0  0  0  0
    0.5471    0.2859    0.0000 C   0  0  0  0  0  0  0  0  0  0  0  0
    1.2616   -0.1266    0.0000 N   0  0  0  0  0  0  0  0  0  0  0  0
    1.2616   -0.9516    0.0000 C   0  0  0  0  0  0  0  0  0  0  0  0
    0.5471   -1.3641    0.0000 C   0  0  0  0  0  0  0  0  0  0  0  0
    0.9174    1.0232    0.0000 H   0  0  0  0  0  0  0  0  0  0  0  0
    0.1769    1.0232    0.0000 H   0  0  0  0  0  0  0  0  0  0  0  0
    0.1769   -2.1013    0.0000 H   0  0  0  0  0  0  0  0  0  0  0  0
    0.9174   -2.1013    0.0000 H   0  0  0  0  0  0  0  0  0  0  0  0
    1.7149   -1.6408    0.0000 H   0  0  0  0  0  0  0  0  0  0  0  0
    2.0852   -0.9995    0.0000 H   0  0  0  0  0  0  0  0  0  0  0  0
    1.9761    0.2859    0.0000 H   0  0  0  0  0  0  0  0  0  0  0  0
   -2.3108   -1.3641    0.0000 H   0  0  0  0  0  0  0  0  0  0  0  0
   -0.8818   -2.1891    0.0000 H   0  0  0  0  0  0  0  0  0  0  0  0
  1  2  1  0  0  0  0
  2  3  4  0  0  0  0
  2  7  4  0  0  0  0
  3  4  4  0  0  0  0
  4  5  4  0  0  0  0
  5  6  4  0  0  0  0
  5 12  1  0  0  0  0
  6  7  4  0  0  0  0
  6  9  1  0  0  0  0
  7  8  1  0  0  0  0
  9 10  1  0  0  0  0
 10 11  1  0  0  0  0
 11 12  1  0  0  0  0
  9 13  1  0  0  0  0
  9 14  1  0  0  0  0
 12 15  1  0  0  0  0
 12 16  1  0  0  0  0
 11 17  1  0  0  0  0
 11 18  1  0  0  0  0
 10 19  1  0  0  0  0
  3 20  1  0  0  0  0
  4 21  1  0  0  0  0
M  END
> <Molecule ChEMBL ID>
CHEMBL287837

> <Class(50)>
0

> <Class(80)>
0

>  <salt>
false

>  <StandardizerResult>
Tautomerize (ID: Tautomerize)
Transform (ID: Transform NO2 (1))
Aromatize (ID: Aromatize)
Wedge Clean (ID: Wedge Clean)
Clean 2D (ID: Clean2D)

$$$$
CHEMBL1515447
  Mrv2010 08032110442D          

 45 47  0  0  1  0            999 V2000
    0.9487    1.5153    0.0000 C   0  0  0  0  0  0  0  0  0  0  0  0
    0.4840    0.8336    0.0000 N   0  0  0  0  0  0  0  0  0  0  0  0
    0.8965    0.1192    0.0000 C   0  0  0  0  0  0  0  0  0  0  0  0
    0.5951   -0.6488    0.0000 C   0  0  0  0  0  0  0  0  0  0  0  0
   -0.1933   -0.8920    0.0000 C   0  0  0  0  0  0  0  0  0  0  0  0
   -0.8749   -0.4272    0.0000 N   0  0  0  0  0  0  0  0  0  0  0  0
   -1.5894   -0.8397    0.0000 C   0  0  0  0  0  0  0  0  0  0  0  0
   -1.5894   -1.6647    0.0000 C   0  0  0  0  0  0  0  0  0  0  0  0
   -0.8749   -2.0772    0.0000 C   0  0  0  0  0  0  0  0  0  0  0  0
   -0.8749   -2.9022    0.0000 C   0  0  0  0  0  0  0  0  0  0  0  0
   -1.5894   -3.3147    0.0000 C   0  0  0  0  0  0  0  0  0  0  0  0
   -2.3039   -2.9022    0.0000 C   0  0  0  0  0  0  0  0  0  0  0  0
   -2.3039   -2.0772    0.0000 C   0  0  0  0  0  0  0  0  0  0  0  0
   -2.3039   -0.4272    0.0000 C   0  0  0  0  0  0  0  0  0  0  0  0
   -3.0183   -0.8397    0.0000 C   0  0  0  0  0  0  0  0  0  0  0  0
   -3.7328   -0.4272    0.0000 C   0  0  0  0  0  0  0  0  0  0  0  0
   -3.7328    0.3978    0.0000 C   0  0  0  0  0  0  0  0  0  0  0  0
   -4.4473    0.8103    0.0000 Cl  0  0  0  0  0  0  0  0  0  0  0  0
   -3.0183    0.8103    0.0000 C   0  0  0  0  0  0  0  0  0  0  0  0
   -2.3039    0.3978    0.0000 C   0  0  0  0  0  0  0  0  0  0  0  0
   -0.9366    0.3954    0.0000 C   0  0  0  0  0  0  0  0  0  0  0  0
   -0.3318    0.9566    0.0000 C   0  0  0  0  0  0  0  0  0  0  0  0
   -0.1605   -3.3147    0.0000 H   0  0  0  0  0  0  0  0  0  0  0  0
    1.6304    1.0505    0.0000 H   0  0  0  0  0  0  0  0  0  0  0  0
    1.4135    2.1969    0.0000 H   0  0  0  0  0  0  0  0  0  0  0  0
    0.2671    1.9800    0.0000 H   0  0  0  0  0  0  0  0  0  0  0  0
   -0.1686    0.0940    0.0000 H   0  0  0  0  0  0  0  0  0  0  0  0
   -1.6443   -0.0286    0.0000 H   0  0  0  0  0  0  0  0  0  0  0  0
   -0.0669   -2.2439    0.0000 H   0  0  0  0  0  0  0  0  0  0  0  0
   -0.8749   -1.2522    0.0000 H   0  0  0  0  0  0  0  0  0  0  0  0
   -3.0183    1.6353    0.0000 H   0  0  0  0  0  0  0  0  0  0  0  0
   -0.6580   -1.5736    0.0000 H   0  0  0  0  0  0  0  0  0  0  0  0
    0.0499   -1.6803    0.0000 H   0  0  0  0  0  0  0  0  0  0  0  0
   -1.5894   -4.1397    0.0000 H   0  0  0  0  0  0  0  0  0  0  0  0
    0.8382   -1.4372    0.0000 H   0  0  0  0  0  0  0  0  0  0  0  0
    1.3630   -0.9502    0.0000 H   0  0  0  0  0  0  0  0  0  0  0  0
   -2.3039   -1.2522    0.0000 H   0  0  0  0  0  0  0  0  0  0  0  0
   -3.0183   -3.3147    0.0000 H   0  0  0  0  0  0  0  0  0  0  0  0
   -4.4473   -0.8397    0.0000 H   0  0  0  0  0  0  0  0  0  0  0  0
   -1.5894    0.8103    0.0000 H   0  0  0  0  0  0  0  0  0  0  0  0
   -3.0183   -1.6647    0.0000 H   0  0  0  0  0  0  0  0  0  0  0  0
    1.6644   -0.1822    0.0000 H   0  0  0  0  0  0  0  0  0  0  0  0
    1.6109    0.5317    0.0000 H   0  0  0  0  0  0  0  0  0  0  0  0
   -0.2088    1.7724    0.0000 H   0  0  0  0  0  0  0  0  0  0  0  0
   -0.8930    1.5614    0.0000 H   0  0  0  0  0  0  0  0  0  0  0  0
  1  2  1  0  0  0  0
  2  3  1  0  0  0  0
  2 22  1  0  0  0  0
  3  4  1  0  0  0  0
  4  5  1  0  0  0  0
  5  6  1  0  0  0  0
  6  7  1  0  0  0  0
  6 21  1  0  0  0  0
  7  8  1  0  0  0  0
  7 14  1  0  0  0  0
  8  9  4  0  0  0  0
  8 13  4  0  0  0  0
  9 10  4  0  0  0  0
 10 11  4  0  0  0  0
 11 12  4  0  0  0  0
 12 13  4  0  0  0  0
 14 15  4  0  0  0  0
 14 20  4  0  0  0  0
 15 16  4  0  0  0  0
 16 17  4  0  0  0  0
 17 18  1  0  0  0  0
 17 19  4  0  0  0  0
 19 20  4  0  0  0  0
 21 22  1  0  0  0  0
 10 23  1  0  0  0  0
  1 24  1  0  0  0  0
  1 25  1  0  0  0  0
  1 26  1  0  0  0  0
 21 27  1  0  0  0  0
 21 28  1  0  0  0  0
  9 29  1  0  0  0  0
  7 30  1  0  0  0  0
 19 31  1  0  0  0  0
  5 32  1  0  0  0  0
  5 33  1  0  0  0  0
 11 34  1  0  0  0  0
  4 35  1  0  0  0  0
  4 36  1  0  0  0  0
 15 37  1  0  0  0  0
 12 38  1  0  0  0  0
 16 39  1  0  0  0  0
 20 40  1  0  0  0  0
 13 41  1  0  0  0  0
  3 42  1  0  0  0  0
  3 43  1  0  0  0  0
 22 44  1  0  0  0  0
 22 45  1  0  0  0  0
M  END
> <Molecule ChEMBL ID>
CHEMBL1515447

> <Class(50)>
0

> <Class(80)>
0

>  <salt>
false

>  <StandardizerResult>
Tautomerize (ID: Tautomerize)
Transform (ID: Transform NO2 (1))
Aromatize (ID: Aromatize)
Wedge Clean (ID: Wedge Clean)
Clean 2D (ID: Clean2D)

$$$$
CHEMBL1489662
  Mrv2010 08032110442D          

 38 40  0  0  0  0            999 V2000
    0.4991    0.0969    0.0000 O   0  0  0  0  0  0  0  0  0  0  0  0
   -0.2154    0.5094    0.0000 C   0  0  0  0  0  0  0  0  0  0  0  0
   -0.9299    0.0969    0.0000 C   0  0  0  0  0  0  0  0  0  0  0  0
   -0.9299   -0.7281    0.0000 C   0  0  0  0  0  0  0  0  0  0  0  0
   -0.2154   -1.1406    0.0000 C   0  0  0  0  0  0  0  0  0  0  0  0
   -0.2154   -1.9656    0.0000 C   0  0  0  0  0  0  0  0  0  0  0  0
   -0.9299   -2.3781    0.0000 C   0  0  0  0  0  0  0  0  0  0  0  0
   -0.9299   -3.2031    0.0000 C   0  0  0  0  0  0  0  0  0  0  0  0
   -0.2154   -3.6156    0.0000 C   0  0  0  0  0  0  0  0  0  0  0  0
   -0.2154   -4.4406    0.0000 C   0  0  0  0  0  0  0  0  0  0  0  0
   -0.9299   -4.8531    0.0000 C   0  0  0  0  0  0  0  0  0  0  0  0
   -1.6443   -4.4406    0.0000 C   0  0  0  0  0  0  0  0  0  0  0  0
   -1.6443   -3.6156    0.0000 C   0  0  0  0  0  0  0  0  0  0  0  0
   -1.6443   -1.9656    0.0000 C   0  0  0  0  0  0  0  0  0  0  0  0
   -1.6443   -1.1406    0.0000 C   0  0  0  0  0  0  0  0  0  0  0  0
   -0.2154    1.3344    0.0000 N   0  0  0  0  0  0  0  0  0  0  0  0
    0.4991    1.7469    0.0000 C   0  0  0  0  0  0  0  0  0  0  0  0
    0.4991    2.5719    0.0000 C   0  0  0  0  0  0  0  0  0  0  0  0
    1.2135    2.9844    0.0000 C   0  0  0  0  0  0  0  0  0  0  0  0
    1.9280    2.5719    0.0000 C   0  0  0  0  0  0  0  0  0  0  0  0
    1.9280    1.7469    0.0000 C   0  0  0  0  0  0  0  0  0  0  0  0
    1.2135    1.3344    0.0000 N   0  0  0  0  0  0  0  0  0  0  0  0
    2.6425    1.3344    0.0000 H   0  0  0  0  0  0  0  0  0  0  0  0
    0.4991   -3.2031    0.0000 H   0  0  0  0  0  0  0  0  0  0  0  0
    0.4991   -2.3781    0.0000 H   0  0  0  0  0  0  0  0  0  0  0  0
   -1.3832    0.7861    0.0000 H   0  0  0  0  0  0  0  0  0  0  0  0
   -1.7535    0.1448    0.0000 H   0  0  0  0  0  0  0  0  0  0  0  0
   -2.3588   -0.7281    0.0000 H   0  0  0  0  0  0  0  0  0  0  0  0
    0.4991   -0.7281    0.0000 H   0  0  0  0  0  0  0  0  0  0  0  0
   -2.3588   -3.2031    0.0000 H   0  0  0  0  0  0  0  0  0  0  0  0
    2.6425    2.9844    0.0000 H   0  0  0  0  0  0  0  0  0  0  0  0
   -0.9299    1.7469    0.0000 H   0  0  0  0  0  0  0  0  0  0  0  0
   -0.2154    2.9844    0.0000 H   0  0  0  0  0  0  0  0  0  0  0  0
    0.4991   -4.8531    0.0000 H   0  0  0  0  0  0  0  0  0  0  0  0
   -0.9299   -5.6781    0.0000 H   0  0  0  0  0  0  0  0  0  0  0  0
   -2.3588   -4.8531    0.0000 H   0  0  0  0  0  0  0  0  0  0  0  0
    1.2135    3.8094    0.0000 H   0  0  0  0  0  0  0  0  0  0  0  0
   -2.3588   -2.3781    0.0000 H   0  0  0  0  0  0  0  0  0  0  0  0
  1  2  2  0  0  0  0
  2  3  1  0  0  0  0
  2 16  1  0  0  0  0
  3  4  1  0  0  0  0
  4  5  4  0  0  0  0
  4 15  4  0  0  0  0
  5  6  4  0  0  0  0
  6  7  4  0  0  0  0
  7  8  1  0  0  0  0
  7 14  4  0  0  0  0
  8  9  4  0  0  0  0
  8 13  4  0  0  0  0
  9 10  4  0  0  0  0
 10 11  4  0  0  0  0
 11 12  4  0  0  0  0
 12 13  4  0  0  0  0
 14 15  4  0  0  0  0
 16 17  1  0  0  0  0
 17 18  4  0  0  0  0
 17 22  4  0  0  0  0
 18 19  4  0  0  0  0
 19 20  4  0  0  0  0
 20 21  4  0  0  0  0
 21 22  4  0  0  0  0
 21 23  1  0  0  0  0
  9 24  1  0  0  0  0
  6 25  1  0  0  0  0
  3 26  1  0  0  0  0
  3 27  1  0  0  0  0
 15 28  1  0  0  0  0
  5 29  1  0  0  0  0
 13 30  1  0  0  0  0
 20 31  1  0  0  0  0
 16 32  1  0  0  0  0
 18 33  1  0  0  0  0
 10 34  1  0  0  0  0
 11 35  1  0  0  0  0
 12 36  1  0  0  0  0
 19 37  1  0  0  0  0
 14 38  1  0  0  0  0
M  END
> <Molecule ChEMBL ID>
CHEMBL1489662

> <Class(50)>
0

> <Class(80)>
0

>  <salt>
false

>  <StandardizerResult>
Tautomerize (ID: Tautomerize)
Neutralize (ID: Neutralize)
Aromatize (ID: Aromatize)
Wedge Clean (ID: Wedge Clean)
Clean 2D (ID: Clean2D)

$$$$
